REMARK SMILES CN1CCN(c2cc(-c3nc4ccc(F)cc4nc3-c3ccc(CN4CCC(n5c(O)nc6cc(F)ccc65)CC4)cc3)ccn2)CC1
REMARK SMILES IDX 20 1 21 2 22 3 23 4 42 5 43 6 19 7 9 8 10 9 11 10 18 11
REMARK SMILES IDX 12 12 17 13 13 14 16 15 14 16 15 17 8 18 6 19 7 20 46 21
REMARK SMILES IDX 45 22 44 23 5 24 2 25 3 26 48 27 4 28 47 29 1 30 24 31 25 32
REMARK SMILES IDX 26 33 41 34 27 35 40 36 28 37 29 38 30 39 39 40 32 41 38 42
REMARK SMILES IDX 33 43 37 44 34 45 35 46 36 47 31 48
REMARK H PARENT 31 49
ROOT
ATOM      1  C   UNL     1      -0.935   2.471   1.236  1.00  0.00     0.002 A 
ATOM      2  C   UNL     1      -0.738   1.133   1.616  1.00  0.00     0.011 A 
ATOM      3  C   UNL     1       0.551   0.623   1.827  1.00  0.00     0.006 A 
ATOM      4  C   UNL     1       1.678   1.439   1.675  1.00  0.00    -0.034 A 
ATOM      5  C   UNL     1       1.492   2.767   1.279  1.00  0.00     0.006 A 
ATOM      6  C   UNL     1       0.208   3.272   1.062  1.00  0.00     0.011 A 
ENDROOT
BRANCH   1   7
ATOM      7  C   UNL     1      -2.276   3.070   1.088  1.00  0.00     0.097 A 
ATOM      8  C   UNL     1      -3.360   2.527   0.382  1.00  0.00     0.097 A 
ATOM      9  N   UNL     1      -4.568   3.164   0.352  1.00  0.00    -0.244 NA
ATOM     10  C   UNL     1      -4.679   4.335   1.003  1.00  0.00     0.090 A 
ATOM     11  N   UNL     1      -2.399   4.263   1.743  1.00  0.00    -0.244 NA
ATOM     12  C   UNL     1      -5.886   5.025   0.978  1.00  0.00     0.033 A 
ATOM     13  C   UNL     1      -3.586   4.890   1.704  1.00  0.00     0.092 A 
ATOM     14  C   UNL     1      -6.033   6.245   1.637  1.00  0.00     0.041 A 
ATOM     15  C   UNL     1      -3.738   6.101   2.362  1.00  0.00     0.069 A 
ATOM     16  C   UNL     1      -4.953   6.770   2.327  1.00  0.00     0.125 A 
ATOM     17  F   UNL     1      -5.080   7.943   2.960  1.00  0.00    -0.207 F 
BRANCH   8  18
ATOM     18  C   UNL     1      -3.341   1.290  -0.416  1.00  0.00     0.008 A 
ATOM     19  C   UNL     1      -4.400  -0.826  -1.025  1.00  0.00     0.129 A 
ATOM     20  C   UNL     1      -4.357   0.331  -0.248  1.00  0.00     0.057 A 
ATOM     21  N   UNL     1      -3.429  -1.062  -1.933  1.00  0.00    -0.239 NA
ATOM     22  C   UNL     1      -2.459  -0.138  -2.103  1.00  0.00     0.114 A 
ATOM     23  C   UNL     1      -2.375   1.040  -1.388  1.00  0.00     0.030 A 
BRANCH  19  24
ATOM     24  N   UNL     1      -5.407  -1.770  -0.854  1.00  0.00    -0.354 N 
ATOM     25  N   UNL     1      -7.777  -3.496  -1.445  1.00  0.00    -0.303 NA
ATOM     26  C   UNL     1      -7.807  -2.020  -1.510  1.00  0.00     0.105 C 
ATOM     27  C   UNL     1      -6.396  -4.001  -1.264  1.00  0.00     0.105 C 
ATOM     28  C   UNL     1      -6.784  -1.322  -0.582  1.00  0.00     0.133 C 
ATOM     29  C   UNL     1      -5.274  -3.006  -1.641  1.00  0.00     0.133 C 
ATOM     30  C   UNL     1      -8.412  -4.075  -2.625  1.00  0.00     0.105 C 
ENDBRANCH  19  24
ENDBRANCH   8  18
ENDBRANCH   1   7
BRANCH   4  31
ATOM     31  C   UNL     1       3.062   0.940   2.028  1.00  0.00     0.120 C 
BRANCH  31  32
ATOM     32  N   UNL     1       3.467  -0.289   1.323  1.00  0.00    -0.299 NA
ATOM     33  C   UNL     1       4.612  -0.892   2.025  1.00  0.00     0.087 C 
ATOM     34  C   UNL     1       3.694  -0.066  -0.113  1.00  0.00     0.087 C 
ATOM     35  C   UNL     1       5.295  -1.985   1.208  1.00  0.00     0.041 C 
ATOM     36  C   UNL     1       5.164  -0.111  -0.527  1.00  0.00     0.041 C 
ATOM     37  C   UNL     1       5.793  -1.459  -0.148  1.00  0.00     0.095 C 
BRANCH  37  38
ATOM     38  N   UNL     1       7.248  -1.433  -0.256  1.00  0.00    -0.291 N 
ATOM     39  C   UNL     1       8.112  -0.691   0.501  1.00  0.00     0.295 A 
ATOM     40  C   UNL     1       8.018  -2.142  -1.156  1.00  0.00     0.072 A 
ATOM     41  N   UNL     1       9.363  -0.854   0.171  1.00  0.00    -0.195 NA
ATOM     42  C   UNL     1       7.715  -3.055  -2.173  1.00  0.00     0.032 A 
ATOM     43  C   UNL     1       9.330  -1.757  -0.861  1.00  0.00     0.095 A 
ATOM     44  C   UNL     1       8.791  -3.580  -2.898  1.00  0.00     0.041 A 
ATOM     45  C   UNL     1      10.395  -2.291  -1.599  1.00  0.00     0.070 A 
ATOM     46  C   UNL     1      10.098  -3.201  -2.610  1.00  0.00     0.125 A 
ATOM     47  F   UNL     1      11.101  -3.726  -3.327  1.00  0.00    -0.207 F 
BRANCH  39  48
ATOM     48  O   UNL     1       7.756   0.122   1.474  1.00  0.00    -0.480 OA
ATOM     49  H   UNL     1       8.622   0.465   1.762  1.00  0.00     0.296 HD
ENDBRANCH  39  48
ENDBRANCH  37  38
ENDBRANCH  31  32
ENDBRANCH   4  31
TORSDOF 7
