MODEL        2USER    Run = 2USERUSER    Estimated Free Energy of Binding    = -10.68 kcal/mol  [=(1)+(2)+(3)-(4)]USERUSER    (1) Final Intermolecular Energy     = -12.77 kcal/molUSER        vdW + Hbond + desolv Energy     = -12.69 kcal/molUSER        Electrostatic Energy            =  -0.08 kcal/molUSER        Moving Ligand-Fixed Receptor    = -12.77 kcal/molUSER        Moving Ligand-Moving Receptor   =  +0.00 kcal/molUSER    (2) Final Total Internal Energy     =  -2.20 kcal/molUSER    (3) Torsional Free Energy           =  +2.09 kcal/molUSER    (4) Unbound System's Energy         =  -2.20 kcal/molUSERUSERREMARK SMILES Oc1nc2cc(F)ccc2n1C1CCN(Cc2ccc(-c3nc4cc(F)ccc4nc3-c3ccc(N4CCOCC4)cc3)cc2)CC1REMARK SMILES IDX 16 1 15 2 12 3 13 4 47 5 14 6 46 7 11 8 2 9 3 10 4 11 10 12REMARK SMILES IDX 5 13 9 14 6 15 8 16 7 17 1 18 17 20 18 21 45 22 19 23 44 24REMARK SMILES IDX 20 25 21 26 22 27 31 28 23 29 30 30 24 31 29 32 25 33 28 34REMARK SMILES IDX 27 35 26 36 32 37 33 38 43 39 34 40 42 41 35 42 36 43 37 44REMARK SMILES IDX 41 45 38 46 40 47 39 48REMARK H PARENT 1 19USER                              x       y       z     vdW  Elec       q    TypeUSER                           _______ _______ _______ _____ _____    ______ ____ROOTATOM      1  C   UNL     1      35.761  42.103  26.180 -0.43 -0.02    +0.120 C  ENDROOTBRANCH   1   2ATOM      2  N   UNL     1      36.524  42.079  27.440 -0.24 +0.09    -0.299 NA ATOM      3  C   UNL     1      39.365  42.747  27.161 -0.25 -0.00    +0.095 C  ATOM      4  C   UNL     1      38.845  41.347  26.796 -0.36 -0.00    +0.041 C  ATOM      5  C   UNL     1      38.499  43.435  28.221 -0.30 -0.00    +0.041 C  ATOM      6  C   UNL     1      37.534  41.017  27.508 -0.47 -0.02    +0.087 C  ATOM      7  C   UNL     1      37.041  43.415  27.767 -0.37 -0.02    +0.087 C  BRANCH   3   8ATOM      8  N   UNL     1      40.779  42.770  27.510 -0.09 +0.01    -0.291 N  ATOM      9  C   UNL     1      41.302  42.810  28.771 -0.07 +0.02    +0.295 A  ATOM     10  N   UNL     1      42.607  42.863  28.788 -0.05 +0.00    -0.195 NA ATOM     11  C   UNL     1      42.968  42.857  27.465 -0.05 -0.00    +0.095 A  ATOM     12  C   UNL     1      41.844  42.798  26.633 -0.11 -0.00    +0.072 A  ATOM     13  C   UNL     1      44.249  42.898  26.901 -0.02 -0.00    +0.070 A  ATOM     14  C   UNL     1      41.945  42.779  25.233 -0.13 -0.00    +0.032 A  ATOM     15  C   UNL     1      44.354  42.881  25.511 -0.05 -0.00    +0.125 A  ATOM     16  C   UNL     1      43.233  42.822  24.688 -0.14 -0.00    +0.041 A  ATOM     17  F   UNL     1      45.571  42.917  24.950 +0.01 -0.00    -0.207 F  BRANCH   9  18ATOM     18  O   UNL     1      40.588  42.794  29.879 -0.58 -0.11    -0.480 OA ATOM     19  H   UNL     1      41.288  42.788  30.558 +0.08 +0.05    +0.296 HD ENDBRANCH   9  18ENDBRANCH   3   8ENDBRANCH   1   2BRANCH   1  20ATOM     20  C   UNL     1      36.516  42.672  24.995 -0.36 +0.00    -0.034 A  ATOM     21  C   UNL     1      36.671  44.055  24.857 -0.25 +0.00    +0.006 A  ATOM     22  C   UNL     1      37.001  41.842  23.980 -0.38 +0.00    +0.006 A  ATOM     23  C   UNL     1      37.309  44.590  23.734 -0.28 +0.00    +0.011 A  ATOM     24  C   UNL     1      37.638  42.381  22.857 -0.41 +0.00    +0.011 A  ATOM     25  C   UNL     1      37.817  43.767  22.714 -0.35 +0.00    +0.002 A  BRANCH  25  26ATOM     26  C   UNL     1      38.458  44.369  21.525 -0.29 +0.00    +0.097 A  ATOM     27  N   UNL     1      39.715  44.842  21.764 -0.16 -0.01    -0.244 NA ATOM     28  C   UNL     1      37.881  44.488  20.251 -0.29 -0.00    +0.097 A  ATOM     29  C   UNL     1      40.368  45.438  20.751 -0.30 +0.00    +0.092 A  ATOM     30  N   UNL     1      38.538  45.111  19.231 -0.24 +0.02    -0.244 NA ATOM     31  C   UNL     1      41.650  45.924  20.960 -0.29 +0.01    +0.069 A  ATOM     32  C   UNL     1      39.773  45.576  19.477 -0.35 -0.00    +0.090 A  ATOM     33  C   UNL     1      42.343  46.543  19.927 -0.34 +0.03    +0.125 A  ATOM     34  C   UNL     1      40.485  46.200  18.457 -0.46 -0.00    +0.033 A  ATOM     35  C   UNL     1      41.772  46.686  18.672 -0.50 +0.00    +0.041 A  ATOM     36  F   UNL     1      43.579  47.009  20.147 -0.15 -0.10    -0.207 F  BRANCH  28  37ATOM     37  C   UNL     1      36.574  43.941  19.860 -0.40 -0.00    +0.003 A  ATOM     38  C   UNL     1      36.199  42.628  20.181 -0.44 -0.00    +0.012 A  ATOM     39  C   UNL     1      35.669  44.716  19.121 -0.35 -0.00    +0.012 A  ATOM     40  C   UNL     1      34.954  42.114  19.793 -0.36 -0.00    +0.026 A  ATOM     41  C   UNL     1      34.421  44.202  18.750 -0.35 -0.01    +0.026 A  ATOM     42  C   UNL     1      34.037  42.893  19.080 -0.37 -0.00    +0.037 A  BRANCH  42  43ATOM     43  N   UNL     1      32.775  42.439  18.669 -0.12 +0.04    -0.367 N  ATOM     44  C   UNL     1      32.030  43.266  17.697 -0.27 -0.03    +0.145 C  ATOM     45  C   UNL     1      32.784  41.008  18.275 -0.37 -0.02    +0.145 C  ATOM     46  C   UNL     1      30.610  42.703  17.529 -0.20 -0.04    +0.181 C  ATOM     47  C   UNL     1      31.342  40.521  18.044 -0.31 -0.02    +0.181 C  ATOM     48  O   UNL     1      30.650  41.336  17.080 -0.14 +0.10    -0.378 OA ENDBRANCH  42  43ENDBRANCH  28  37ENDBRANCH  25  26ENDBRANCH   1  20TORSDOF 7TERENDMDL