MODEL        10USER    Run = 10USERUSER    Estimated Free Energy of Binding    = -12.34 kcal/mol  [=(1)+(2)+(3)-(4)]USERUSER    (1) Final Intermolecular Energy     = -14.42 kcal/molUSER        vdW + Hbond + desolv Energy     = -14.36 kcal/molUSER        Electrostatic Energy            =  -0.06 kcal/molUSER        Moving Ligand-Fixed Receptor    = -14.42 kcal/molUSER        Moving Ligand-Moving Receptor   =  +0.00 kcal/molUSER    (2) Final Total Internal Energy     =  -2.60 kcal/molUSER    (3) Torsional Free Energy           =  +2.09 kcal/molUSER    (4) Unbound System's Energy         =  -2.60 kcal/molUSERUSERREMARK SMILES CN1CCN(c2cc(-c3nc4ccc(F)cc4nc3-c3ccc(CN4CCC(n5c(O)nc6cc(F)ccc65)CC4)cc3)ccn2)CC1REMARK SMILES IDX 20 1 21 2 22 3 23 4 42 5 43 6 19 7 9 8 10 9 11 10 18 11REMARK SMILES IDX 12 12 17 13 13 14 16 15 14 16 15 17 8 18 6 19 7 20 46 21REMARK SMILES IDX 45 22 44 23 5 24 2 25 3 26 48 27 4 28 47 29 1 30 24 31 25 32REMARK SMILES IDX 26 33 41 34 27 35 40 36 28 37 29 38 30 39 39 40 32 41 38 42REMARK SMILES IDX 33 43 37 44 34 45 35 46 36 47 31 48REMARK H PARENT 31 49USER                              x       y       z     vdW  Elec       q    TypeUSER                           _______ _______ _______ _____ _____    ______ ____ROOTATOM      1  C   UNL     1      34.307  44.012  17.546 -0.30 -0.00    +0.002 A  ATOM      2  C   UNL     1      34.803  42.700  17.471 -0.39 -0.00    +0.011 A  ATOM      3  C   UNL     1      35.387  42.082  18.586 -0.34 -0.00    +0.006 A  ATOM      4  C   UNL     1      35.482  42.755  19.810 -0.42 +0.00    -0.034 A  ATOM      5  C   UNL     1      35.008  44.068  19.889 -0.38 -0.00    +0.006 A  ATOM      6  C   UNL     1      34.432  44.685  18.775 -0.39 -0.00    +0.011 A  ENDROOTBRANCH   1   7ATOM      7  C   UNL     1      33.608  44.668  16.424 -0.25 -0.06    +0.097 A  ATOM      8  C   UNL     1      34.205  45.321  15.335 -0.25 -0.08    +0.097 A  ATOM      9  N   UNL     1      33.445  45.857  14.335 -0.10 +0.22    -0.244 NA ATOM     10  C   UNL     1      32.108  45.756  14.436 -0.33 -0.07    +0.090 A  ATOM     11  N   UNL     1      32.248  44.574  16.519 -0.26 +0.11    -0.244 NA ATOM     12  C   UNL     1      31.299  46.308  13.450 -0.51 -0.02    +0.033 A  ATOM     13  C   UNL     1      31.504  45.110  15.537 -0.33 -0.05    +0.092 A  ATOM     14  C   UNL     1      29.909  46.226  13.528 -0.47 -0.03    +0.041 A  ATOM     15  C   UNL     1      30.121  45.027  15.609 -0.32 -0.03    +0.069 A  ATOM     16  C   UNL     1      29.334  45.581  14.610 -0.05 -0.09    +0.125 A  ATOM     17  F   UNL     1      28.000  45.501  14.699 +0.15 +0.13    -0.207 F  BRANCH   8  18ATOM     18  C   UNL     1      35.647  45.548  15.147 -0.36 -0.01    +0.008 A  ATOM     19  C   UNL     1      37.824  46.098  16.110 -0.29 -0.05    +0.129 A  ATOM     20  C   UNL     1      36.446  45.928  16.241 -0.32 -0.03    +0.057 A  ATOM     21  N   UNL     1      38.410  45.937  14.904 -0.23 +0.07    -0.239 NA ATOM     22  C   UNL     1      37.646  45.562  13.855 -0.35 -0.04    +0.114 A  ATOM     23  C   UNL     1      36.284  45.349  13.924 -0.38 -0.01    +0.030 A  BRANCH  19  24ATOM     24  N   UNL     1      38.608  46.475  17.195 -0.18 +0.11    -0.354 N  ATOM     25  N   UNL     1      40.790  46.432  19.241 -0.23 -0.00    -0.303 NA ATOM     26  C   UNL     1      39.826  45.328  19.054 -0.42 -0.00    +0.105 C  ATOM     27  C   UNL     1      40.670  47.442  18.164 -0.33 -0.01    +0.105 C  ATOM     28  C   UNL     1      38.458  45.768  18.480 -0.31 -0.02    +0.133 C  ATOM     29  C   UNL     1      39.962  46.956  16.878 -0.46 -0.03    +0.133 C  ATOM     30  C   UNL     1      42.151  45.914  19.344 -0.28 +0.02    +0.105 C  ENDBRANCH  19  24ENDBRANCH   8  18ENDBRANCH   1   7BRANCH   4  31ATOM     31  C   UNL     1      35.987  42.055  21.053 -0.47 +0.00    +0.120 C  BRANCH  31  32ATOM     32  N   UNL     1      37.351  42.439  21.458 -0.20 -0.01    -0.299 NA ATOM     33  C   UNL     1      37.407  42.539  22.926 -0.42 +0.01    +0.087 C  ATOM     34  C   UNL     1      37.831  43.639  20.757 -0.33 -0.00    +0.087 C  ATOM     35  C   UNL     1      38.676  43.225  23.422 -0.31 +0.00    +0.041 C  ATOM     36  C   UNL     1      37.910  44.886  21.636 -0.33 +0.00    +0.041 C  ATOM     37  C   UNL     1      38.825  44.641  22.844 -0.29 +0.01    +0.095 C  BRANCH  37  38ATOM     38  N   UNL     1      38.695  45.690  23.850 -0.15 -0.03    -0.291 N  ATOM     39  C   UNL     1      37.655  45.866  24.720 -0.01 +0.05    +0.295 A  ATOM     40  C   UNL     1      39.594  46.709  24.096 -0.24 +0.01    +0.072 A  ATOM     41  N   UNL     1      37.798  46.902  25.499 -0.50 -0.01    -0.195 NA ATOM     42  C   UNL     1      40.829  47.059  23.538 -0.23 +0.00    +0.032 A  ATOM     43  C   UNL     1      39.003  47.444  25.129 -0.25 +0.01    +0.095 A  ATOM     44  C   UNL     1      41.465  48.191  24.060 -0.31 +0.01    +0.041 A  ATOM     45  C   UNL     1      39.653  48.576  25.638 -0.24 +0.01    +0.070 A  ATOM     46  C   UNL     1      40.883  48.926  25.087 -0.22 +0.02    +0.125 A  ATOM     47  F   UNL     1      41.523  50.004  25.559 -0.09 -0.04    -0.207 F  BRANCH  39  48ATOM     48  O   UNL     1      36.593  45.090  24.793 -0.34 -0.09    -0.480 OA ATOM     49  H   UNL     1      36.027  45.599  25.402 -0.34 -0.02    +0.296 HD ENDBRANCH  39  48ENDBRANCH  37  38ENDBRANCH  31  32ENDBRANCH   4  31TORSDOF 7TERENDMDL