REMARK SMILES COc1ccc(O)c(C(=O)c2ccc(C(=O)N[C@@H]3CCN(CC(=O)N4CCOCC4)C[C@H]3NC(=O)c3ccncc3)cc2)c1F
REMARK SMILES IDX 11 1 12 2 13 3 14 4 42 5 43 6 9 7 10 8 8 9 3 10 4 11 44 12
REMARK SMILES IDX 5 13 6 14 45 15 2 16 1 17 7 18 15 20 17 21 16 22 18 24 19 25
REMARK SMILES IDX 32 26 20 27 31 28 21 29 33 30 34 31 35 33 36 34 37 35 41 36
REMARK SMILES IDX 38 37 40 38 39 39 22 40 23 41 25 42 26 43 30 44 27 45 29 46
REMARK SMILES IDX 28 47 24 48
REMARK H PARENT 7 19 17 23 33 32
ROOT
ATOM      1  C   UNL     1       5.719  -1.055  -1.214  1.00  0.00     0.023 A 
ATOM      2  C   UNL     1       5.130  -1.666  -0.102  1.00  0.00     0.013 A 
ATOM      3  C   UNL     1       3.780  -2.027  -0.146  1.00  0.00     0.014 A 
ATOM      4  C   UNL     1       3.023  -1.771  -1.296  1.00  0.00     0.039 A 
ATOM      5  C   UNL     1       3.626  -1.193  -2.420  1.00  0.00     0.014 A 
ATOM      6  C   UNL     1       4.978  -0.842  -2.381  1.00  0.00     0.013 A 
ENDROOT
BRANCH   1   7
ATOM      7  C   UNL     1       7.144  -0.662  -1.202  1.00  0.00     0.199 C 
ATOM      8  O   UNL     1       7.867  -1.025  -2.129  1.00  0.00    -0.288 OA
BRANCH   7   9
ATOM      9  C   UNL     1       7.743   0.118  -0.097  1.00  0.00     0.104 A 
ATOM     10  C   UNL     1       7.570   1.749   1.708  1.00  0.00     0.155 A 
ATOM     11  C   UNL     1       8.928   1.583   1.986  1.00  0.00     0.053 A 
ATOM     12  C   UNL     1       6.990   1.015   0.663  1.00  0.00     0.179 A 
ATOM     13  C   UNL     1       9.697   0.707   1.216  1.00  0.00     0.051 A 
ATOM     14  C   UNL     1       9.111  -0.009   0.175  1.00  0.00     0.130 A 
ATOM     15  F   UNL     1       5.692   1.218   0.380  1.00  0.00    -0.202 F 
BRANCH  10  16
ATOM     16  O   UNL     1       6.717   2.582   2.382  1.00  0.00    -0.494 OA
ATOM     17  C   UNL     1       7.281   3.437   3.367  1.00  0.00     0.278 C 
ENDBRANCH  10  16
BRANCH  14  18
ATOM     18  O   UNL     1       9.943  -0.824  -0.547  1.00  0.00    -0.507 OA
ATOM     19  H   UNL     1       9.454  -1.124  -1.347  1.00  0.00     0.293 HD
ENDBRANCH  14  18
ENDBRANCH   7   9
ENDBRANCH   1   7
BRANCH   4  20
ATOM     20  C   UNL     1       1.583  -2.138  -1.293  1.00  0.00     0.251 C 
ATOM     21  N   UNL     1       0.746  -1.286  -1.986  1.00  0.00    -0.347 N 
ATOM     22  O   UNL     1       1.188  -3.115  -0.666  1.00  0.00    -0.269 OA
ATOM     23  H   UNL     1       1.103  -0.369  -2.227  1.00  0.00     0.164 HD
BRANCH  21  24
ATOM     24  C   UNL     1      -0.705  -1.446  -1.908  1.00  0.00     0.107 C 
ATOM     25  C   UNL     1      -1.382  -0.741  -3.092  1.00  0.00     0.042 C 
ATOM     26  C   UNL     1      -1.283  -1.007  -0.526  1.00  0.00     0.118 C 
ATOM     27  C   UNL     1      -2.795  -0.289  -2.741  1.00  0.00     0.087 C 
ATOM     28  C   UNL     1      -1.773   0.460  -0.626  1.00  0.00     0.112 C 
ATOM     29  N   UNL     1      -2.760   0.728  -1.692  1.00  0.00    -0.292 NA
BRANCH  26  30
ATOM     30  N   UNL     1      -2.332  -1.949  -0.087  1.00  0.00    -0.346 N 
ATOM     31  C   UNL     1      -2.915  -1.853   1.160  1.00  0.00     0.251 C 
ATOM     32  H   UNL     1      -2.223  -2.898  -0.424  1.00  0.00     0.164 HD
ATOM     33  O   UNL     1      -2.722  -0.933   1.944  1.00  0.00    -0.269 OA
BRANCH  31  34
ATOM     34  C   UNL     1      -3.802  -2.982   1.550  1.00  0.00     0.042 A 
ATOM     35  C   UNL     1      -3.974  -3.255   2.906  1.00  0.00     0.034 A 
ATOM     36  C   UNL     1      -4.480  -3.747   0.599  1.00  0.00     0.034 A 
ATOM     37  C   UNL     1      -4.799  -4.306   3.256  1.00  0.00     0.112 A 
ATOM     38  C   UNL     1      -5.283  -4.776   1.053  1.00  0.00     0.112 A 
ATOM     39  N   UNL     1      -5.452  -5.075   2.357  1.00  0.00    -0.265 NA
ENDBRANCH  31  34
ENDBRANCH  26  30
BRANCH  29  40
ATOM     40  C   UNL     1      -4.103   1.014  -1.149  1.00  0.00     0.185 C 
BRANCH  40  41
ATOM     41  C   UNL     1      -4.171   2.400  -0.464  1.00  0.00     0.236 C 
ATOM     42  N   UNL     1      -5.381   2.729   0.138  1.00  0.00    -0.337 N 
ATOM     43  C   UNL     1      -6.556   1.857   0.192  1.00  0.00     0.148 C 
ATOM     44  C   UNL     1      -5.571   4.069   0.699  1.00  0.00     0.148 C 
ATOM     45  C   UNL     1      -7.605   2.385   1.176  1.00  0.00     0.181 C 
ATOM     46  C   UNL     1      -6.985   4.577   0.398  1.00  0.00     0.181 C 
ATOM     47  O   UNL     1      -8.036   3.714   0.864  1.00  0.00    -0.378 OA
ATOM     48  O   UNL     1      -3.229   3.194  -0.471  1.00  0.00    -0.273 OA
ENDBRANCH  40  41
ENDBRANCH  29  40
ENDBRANCH  21  24
ENDBRANCH   4  20
TORSDOF 10
