MODEL        5USER    Run = 5USERUSER    Estimated Free Energy of Binding    = -10.03 kcal/mol  [=(1)+(2)+(3)-(4)]USERUSER    (1) Final Intermolecular Energy     = -12.71 kcal/molUSER        vdW + Hbond + desolv Energy     = -12.53 kcal/molUSER        Electrostatic Energy            =  -0.18 kcal/molUSER        Moving Ligand-Fixed Receptor    = -12.71 kcal/molUSER        Moving Ligand-Moving Receptor   =  +0.00 kcal/molUSER    (2) Final Total Internal Energy     =  -1.97 kcal/molUSER    (3) Torsional Free Energy           =  +2.68 kcal/molUSER    (4) Unbound System's Energy         =  -1.97 kcal/molUSERUSERREMARK SMILES COc1ccc(O)c(C(=O)c2ccc(C(=O)N[C@@H]3CCN(c4nnc(C)o4)C[C@H]3NC(=O)c3ccncc3)cc2)c1FREMARK SMILES IDX 11 1 12 2 13 3 14 4 39 5 40 6 9 7 10 8 8 9 3 10 4 11 41 12REMARK SMILES IDX 5 13 6 14 42 15 2 16 1 17 7 18 15 20 17 21 16 22 18 24 19 25REMARK SMILES IDX 29 26 20 27 28 28 21 29 30 30 31 31 32 33 33 34 34 35 38 36REMARK SMILES IDX 35 37 37 38 36 39 22 40 23 41 27 42 24 43 25 44 26 45REMARK H PARENT 7 19 17 23 30 32USER                              x       y       z     vdW  Elec       q    TypeUSER                           _______ _______ _______ _____ _____    ______ ____ROOTATOM      1  C   UNL     1      33.666  42.902  17.709 -0.33 -0.01    +0.023 A  ATOM      2  C   UNL     1      34.899  42.722  17.071 -0.41 -0.00    +0.013 A  ATOM      3  C   UNL     1      36.062  43.247  17.641 -0.26 -0.00    +0.014 A  ATOM      4  C   UNL     1      35.994  43.957  18.848 -0.33 -0.01    +0.039 A  ATOM      5  C   UNL     1      34.751  44.180  19.454 -0.39 -0.00    +0.014 A  ATOM      6  C   UNL     1      33.588  43.655  18.884 -0.37 -0.00    +0.013 A  ENDROOTBRANCH   1   7ATOM      7  C   UNL     1      32.419  42.355  17.131 -0.23 -0.08    +0.199 C  ATOM      8  O   UNL     1      31.953  42.882  16.120 -0.23 +0.14    -0.288 OA BRANCH   7   9ATOM      9  C   UNL     1      31.726  41.173  17.692 -0.28 -0.03    +0.104 A  ATOM     10  C   UNL     1      31.438  39.483  19.429 -0.30 +0.02    +0.155 A  ATOM     11  C   UNL     1      30.381  38.924  18.707 -0.35 +0.01    +0.053 A  ATOM     12  C   UNL     1      32.098  40.608  18.915 -0.26 +0.00    +0.179 A  ATOM     13  C   UNL     1      29.981  39.496  17.496 -0.31 +0.01    +0.051 A  ATOM     14  C   UNL     1      30.641  40.619  17.001 -0.26 -0.03    +0.130 A  ATOM     15  F   UNL     1      33.088  41.156  19.638 -0.02 -0.04    -0.202 F  BRANCH  10  16ATOM     16  O   UNL     1      31.909  39.022  20.630 -0.96 -0.17    -0.494 OA ATOM     17  C   UNL     1      31.245  37.903  21.205 -0.37 +0.03    +0.278 C  ENDBRANCH  10  16BRANCH  14  18ATOM     18  O   UNL     1      30.172  41.128  15.821 -0.18 +0.19    -0.507 OA ATOM     19  H   UNL     1      30.945  41.287  15.231 -0.38 -0.20    +0.293 HD ENDBRANCH  14  18ENDBRANCH   7   9ENDBRANCH   1   7BRANCH   4  20ATOM     20  C   UNL     1      37.216  44.502  19.508 -0.23 -0.02    +0.251 C  ATOM     21  N   UNL     1      37.543  43.935  20.725 -0.16 +0.00    -0.347 N  ATOM     22  O   UNL     1      37.836  45.420  18.986 -0.24 +0.03    -0.269 OA ATOM     23  H   UNL     1      36.760  43.497  21.197 +0.10 +0.01    +0.164 HD BRANCH  21  24ATOM     24  C   UNL     1      38.563  44.514  21.616 -0.33 +0.00    +0.108 C  ATOM     25  C   UNL     1      39.590  43.489  22.136 -0.27 +0.00    +0.049 C  ATOM     26  C   UNL     1      37.892  45.228  22.822 -0.18 +0.01    +0.124 C  ATOM     27  C   UNL     1      38.983  42.512  23.136 -0.20 +0.01    +0.123 C  ATOM     28  C   UNL     1      37.294  44.191  23.795 -0.29 +0.02    +0.148 C  ATOM     29  N   UNL     1      38.336  43.246  24.230 -0.10 -0.02    -0.323 N  BRANCH  26  30ATOM     30  N   UNL     1      38.836  46.098  23.532 -0.15 -0.04    -0.345 N  ATOM     31  C   UNL     1      38.450  46.852  24.615 -0.24 +0.03    +0.251 C  ATOM     32  H   UNL     1      39.781  46.117  23.175 +0.08 +0.01    +0.164 HD ATOM     33  O   UNL     1      37.317  46.800  25.081 -0.83 -0.05    -0.269 OA BRANCH  31  34ATOM     34  C   UNL     1      39.480  47.727  25.242 -0.26 +0.00    +0.042 A  ATOM     35  C   UNL     1      39.298  48.093  26.577 -0.24 +0.00    +0.034 A  ATOM     36  C   UNL     1      40.597  48.195  24.549 -0.30 +0.00    +0.034 A  ATOM     37  C   UNL     1      40.258  48.888  27.172 -0.23 +0.01    +0.112 A  ATOM     38  C   UNL     1      41.500  48.986  25.238 -0.28 +0.02    +0.112 A  ATOM     39  N   UNL     1      41.359  49.335  26.533 -0.17 -0.03    -0.265 NA ENDBRANCH  31  34ENDBRANCH  26  30BRANCH  29  40ATOM     40  C   UNL     1      38.056  42.560  25.370 -0.10 -0.00    +0.318 A  ATOM     41  N   UNL     1      38.866  42.104  26.304 -0.25 +0.00    -0.090 NA ATOM     42  O   UNL     1      36.749  42.237  25.625 -0.18 +0.04    -0.408 OA ATOM     43  N   UNL     1      38.085  41.458  27.238 -0.36 +0.01    -0.112 NA ATOM     44  C   UNL     1      36.848  41.556  26.805 -0.30 -0.05    +0.215 A  ATOM     45  C   UNL     1      35.600  41.049  27.397 -0.62 -0.05    +0.113 C  ENDBRANCH  29  40ENDBRANCH  21  24ENDBRANCH   4  20TORSDOF 9TERENDMDL