MODEL        6USER    Run = 6USERUSER    Estimated Free Energy of Binding    = -11.97 kcal/mol  [=(1)+(2)+(3)-(4)]USERUSER    (1) Final Intermolecular Energy     = -14.95 kcal/molUSER        vdW + Hbond + desolv Energy     = -14.67 kcal/molUSER        Electrostatic Energy            =  -0.28 kcal/molUSER        Moving Ligand-Fixed Receptor    = -14.95 kcal/molUSER        Moving Ligand-Moving Receptor   =  +0.00 kcal/molUSER    (2) Final Total Internal Energy     =  -3.17 kcal/molUSER    (3) Torsional Free Energy           =  +2.98 kcal/molUSER    (4) Unbound System's Energy         =  -3.17 kcal/molUSERUSERREMARK SMILES COc1ccc(O)c(C(=O)c2ccc(C(=O)N[C@@H]3CCN(CC(=O)N4CCOCC4)C[C@H]3NC(=O)c3ccncc3)cc2)c1FREMARK SMILES IDX 11 1 12 2 13 3 14 4 42 5 43 6 9 7 10 8 8 9 3 10 4 11 44 12REMARK SMILES IDX 5 13 6 14 45 15 2 16 1 17 7 18 15 20 17 21 16 22 18 24 19 25REMARK SMILES IDX 32 26 20 27 31 28 21 29 33 30 34 31 35 33 36 34 37 35 41 36REMARK SMILES IDX 38 37 40 38 39 39 22 40 23 41 25 42 26 43 30 44 27 45 29 46REMARK SMILES IDX 28 47 24 48REMARK H PARENT 7 19 17 23 33 32USER                              x       y       z     vdW  Elec       q    TypeUSER                           _______ _______ _______ _____ _____    ______ ____ROOTATOM      1  C   UNL     1      27.879  40.789  17.368 -0.22 -0.00    +0.023 A  ATOM      2  C   UNL     1      29.001  40.142  17.897 -0.27 +0.00    +0.013 A  ATOM      3  C   UNL     1      30.225  40.814  17.950 -0.26 -0.00    +0.014 A  ATOM      4  C   UNL     1      30.327  42.125  17.468 -0.23 -0.01    +0.039 A  ATOM      5  C   UNL     1      29.193  42.782  16.973 -0.23 -0.00    +0.014 A  ATOM      6  C   UNL     1      27.966  42.115  16.930 -0.21 -0.00    +0.013 A  ENDROOTBRANCH   1   7ATOM      7  C   UNL     1      26.569  40.109  17.298 -0.21 +0.02    +0.199 C  ATOM      8  O   UNL     1      26.169  39.701  16.209 -0.58 -0.08    -0.288 OA BRANCH   7   9ATOM      9  C   UNL     1      25.701  39.935  18.484 -0.23 -0.01    +0.104 A  ATOM     10  C   UNL     1      25.008  40.562  20.737 -0.29 -0.04    +0.155 A  ATOM     11  C   UNL     1      24.035  39.561  20.714 -0.33 -0.02    +0.053 A  ATOM     12  C   UNL     1      25.837  40.737  19.619 -0.17 -0.03    +0.179 A  ATOM     13  C   UNL     1      23.906  38.736  19.593 -0.28 -0.04    +0.051 A  ATOM     14  C   UNL     1      24.742  38.914  18.494 -0.31 -0.05    +0.130 A  ATOM     15  F   UNL     1      26.797  41.675  19.673 -0.02 +0.03    -0.202 F  BRANCH  10  16ATOM     16  O   UNL     1      25.237  41.423  21.776 -0.53 +0.06    -0.494 OA ATOM     17  C   UNL     1      24.227  42.380  22.067 -0.50 -0.07    +0.278 C  ENDBRANCH  10  16BRANCH  14  18ATOM     18  O   UNL     1      24.567  38.044  17.449 -0.50 +0.15    -0.507 OA ATOM     19  H   UNL     1      24.368  38.574  16.644 -0.14 -0.12    +0.293 HD ENDBRANCH  14  18ENDBRANCH   7   9ENDBRANCH   1   7BRANCH   4  20ATOM     20  C   UNL     1      31.653  42.795  17.510 -0.19 -0.06    +0.251 C  ATOM     21  N   UNL     1      32.347  42.824  16.316 -0.10 +0.17    -0.347 N  ATOM     22  O   UNL     1      32.095  43.241  18.563 -0.22 +0.03    -0.269 OA ATOM     23  H   UNL     1      32.045  42.196  15.581 -0.43 -0.13    +0.164 HD BRANCH  21  24ATOM     24  C   UNL     1      33.729  43.298  16.274 -0.33 -0.05    +0.107 C  ATOM     25  C   UNL     1      34.660  42.286  16.958 -0.45 -0.02    +0.042 C  ATOM     26  C   UNL     1      33.884  44.746  16.837 -0.29 -0.07    +0.118 C  ATOM     27  C   UNL     1      35.896  42.964  17.537 -0.25 -0.03    +0.087 C  ATOM     28  C   UNL     1      34.297  44.666  18.329 -0.35 -0.04    +0.112 C  ATOM     29  N   UNL     1      35.518  43.884  18.609 -0.13 +0.07    -0.292 NA BRANCH  26  30ATOM     30  N   UNL     1      34.828  45.520  16.007 -0.11 +0.28    -0.346 N  ATOM     31  C   UNL     1      34.478  45.985  14.756 -0.13 -0.25    +0.251 C  ATOM     32  H   UNL     1      35.799  45.244  16.092 +0.12 -0.09    +0.164 HD ATOM     33  O   UNL     1      33.350  45.918  14.284 -0.27 +0.25    -0.269 OA BRANCH  31  34ATOM     34  C   UNL     1      35.583  46.567  13.947 -0.43 -0.03    +0.042 A  ATOM     35  C   UNL     1      35.630  46.283  12.583 -0.50 -0.02    +0.034 A  ATOM     36  C   UNL     1      36.547  47.404  14.513 -0.42 -0.03    +0.034 A  ATOM     37  C   UNL     1      36.661  46.828  11.843 -0.57 -0.04    +0.112 A  ATOM     38  C   UNL     1      37.537  47.899  13.685 -0.45 -0.05    +0.112 A  ATOM     39  N   UNL     1      37.618  47.625  12.367 -0.92 +0.02    -0.265 NA ENDBRANCH  31  34ENDBRANCH  26  30BRANCH  29  40ATOM     40  C   UNL     1      36.645  44.741  19.030 -0.26 -0.03    +0.185 C  BRANCH  40  41ATOM     41  C   UNL     1      37.619  45.036  17.864 -0.26 -0.06    +0.236 C  ATOM     42  N   UNL     1      38.914  45.396  18.221 -0.19 +0.05    -0.337 N  ATOM     43  C   UNL     1      39.412  45.482  19.596 -0.36 -0.00    +0.148 C  ATOM     44  C   UNL     1      39.862  45.813  17.186 -0.36 -0.02    +0.148 C  ATOM     45  C   UNL     1      40.938  45.605  19.635 -0.36 +0.01    +0.181 C  ATOM     46  C   UNL     1      40.708  46.991  17.681 -0.44 -0.02    +0.181 C  ATOM     47  O   UNL     1      41.421  46.736  18.903 -0.29 -0.00    -0.378 OA ATOM     48  O   UNL     1      37.276  44.992  16.681 -0.21 +0.09    -0.273 OA ENDBRANCH  40  41ENDBRANCH  29  40ENDBRANCH  21  24ENDBRANCH   4  20TORSDOF 10TERENDMDL