MODEL        6USER    Run = 6USERUSER    Estimated Free Energy of Binding    = -10.73 kcal/mol  [=(1)+(2)+(3)-(4)]USERUSER    (1) Final Intermolecular Energy     = -12.82 kcal/molUSER        vdW + Hbond + desolv Energy     = -12.72 kcal/molUSER        Electrostatic Energy            =  -0.10 kcal/molUSER        Moving Ligand-Fixed Receptor    = -12.82 kcal/molUSER        Moving Ligand-Moving Receptor   =  +0.00 kcal/molUSER    (2) Final Total Internal Energy     =  -1.85 kcal/molUSER    (3) Torsional Free Energy           =  +2.09 kcal/molUSER    (4) Unbound System's Energy         =  -1.85 kcal/molUSERUSERREMARK SMILES C[C@H](c1ccc(F)cc1)c1nccc2n(CCN3CCOCC3)c(=O)c(Nc3ccccc3)c-2n1REMARK SMILES IDX 10 1 11 2 12 3 13 4 14 5 15 6 24 7 25 8 26 9 34 10 35 11REMARK SMILES IDX 2 12 1 13 3 14 4 15 9 16 5 17 8 18 6 19 7 20 27 21 28 23REMARK SMILES IDX 29 24 33 25 30 26 32 27 31 28 16 29 17 30 18 31 19 32 23 33REMARK SMILES IDX 20 34 22 35 21 36REMARK H PARENT 27 22USER                              x       y       z     vdW  Elec       q    TypeUSER                           _______ _______ _______ _____ _____    ______ ____ROOTATOM      1  C   UNL     1      37.151  45.297  16.738 -0.26 -0.05    +0.136 A  ATOM      2  N   UNL     1      37.404  44.679  17.928 -0.20 +0.05    -0.241 NA ATOM      3  C   UNL     1      38.399  44.887  18.707 -0.31 -0.01    +0.115 A  ATOM      4  C   UNL     1      39.556  45.779  18.625 -0.40 -0.00    +0.049 A  ATOM      5  C   UNL     1      39.756  46.625  17.622 -0.42 -0.01    +0.074 A  ATOM      6  N   UNL     1      40.819  47.496  17.519 -0.31 +0.04    -0.303 N  ATOM      7  C   UNL     1      40.690  48.297  16.388 -0.33 -0.05    +0.277 A  ATOM      8  O   UNL     1      41.409  49.232  16.078 -1.05 +0.00    -0.267 OA ATOM      9  C   UNL     1      39.480  47.800  15.661 -0.42 -0.04    +0.133 A  ATOM     10  C   UNL     1      38.947  46.844  16.452 -0.35 -0.04    +0.118 A  ATOM     11  N   UNL     1      37.796  46.216  16.102 -0.21 +0.09    -0.228 NA ENDROOTBRANCH   1  12ATOM     12  C   UNL     1      35.847  44.778  16.089 -0.34 -0.04    +0.084 C  ATOM     13  C   UNL     1      35.073  45.907  15.400 -0.39 -0.02    +0.021 C  BRANCH  12  14ATOM     14  C   UNL     1      34.986  44.015  17.088 -0.29 +0.01    -0.037 A  ATOM     15  C   UNL     1      34.222  44.722  18.032 -0.35 -0.00    +0.007 A  ATOM     16  C   UNL     1      34.926  42.610  17.087 -0.42 -0.00    +0.007 A  ATOM     17  C   UNL     1      33.428  44.041  18.958 -0.38 -0.01    +0.039 A  ATOM     18  C   UNL     1      34.131  41.932  18.013 -0.39 -0.01    +0.039 A  ATOM     19  C   UNL     1      33.391  42.654  18.941 -0.31 -0.01    +0.123 A  ATOM     20  F   UNL     1      32.632  42.002  19.832 -0.06 -0.04    -0.207 F  ENDBRANCH  12  14ENDBRANCH   1  12BRANCH   9  21ATOM     21  N   UNL     1      38.956  48.305  14.489 -0.25 +0.14    -0.349 N  ATOM     22  H   UNL     1      38.912  49.322  14.531 -0.32 -0.12    +0.167 HD BRANCH  21  23ATOM     23  C   UNL     1      37.943  47.778  13.663 -0.49 -0.01    +0.039 A  ATOM     24  C   UNL     1      38.037  46.423  13.299 -0.31 -0.01    +0.026 A  ATOM     25  C   UNL     1      36.823  48.491  13.227 -0.46 -0.01    +0.026 A  ATOM     26  C   UNL     1      37.064  45.813  12.505 -0.53 -0.00    +0.002 A  ATOM     27  C   UNL     1      35.845  47.884  12.430 -0.51 -0.00    +0.002 A  ATOM     28  C   UNL     1      35.967  46.546  12.067 -0.65 -0.00    +0.000 A  ENDBRANCH  21  23ENDBRANCH   9  21BRANCH   6  29ATOM     29  C   UNL     1      41.866  47.747  18.496 -0.39 -0.00    +0.141 C  BRANCH  29  30ATOM     30  C   UNL     1      42.437  46.454  19.116 -0.39 +0.02    +0.106 C  BRANCH  30  31ATOM     31  N   UNL     1      41.978  46.205  20.501 -0.20 -0.05    -0.297 NA ATOM     32  C   UNL     1      42.897  46.811  21.495 -0.34 +0.03    +0.113 C  ATOM     33  C   UNL     1      41.825  44.754  20.768 -0.29 +0.02    +0.113 C  ATOM     34  C   UNL     1      43.897  45.814  22.101 -0.18 +0.09    +0.175 C  ATOM     35  C   UNL     1      41.955  44.425  22.264 -0.21 +0.02    +0.175 C  ATOM     36  O   UNL     1      43.260  44.721  22.779 -0.07 -0.08    -0.379 OA ENDBRANCH  30  31ENDBRANCH  29  30ENDBRANCH   6  29TORSDOF 7TERENDMDL