REMARK SMILES C[C@H](c1ccc(F)cc1)c1nccc2n(CCN3CCOCC3)c(=O)c(Nc3ccccc3)c-2n1
REMARK SMILES IDX 10 1 11 2 12 3 13 4 14 5 15 6 24 7 25 8 26 9 34 10 35 11
REMARK SMILES IDX 2 12 1 13 3 14 4 15 9 16 5 17 8 18 6 19 7 20 27 21 28 23
REMARK SMILES IDX 29 24 33 25 30 26 32 27 31 28 16 29 17 30 18 31 19 32 23 33
REMARK SMILES IDX 20 34 22 35 21 36
REMARK H PARENT 27 22
ROOT
ATOM      1  C   UNL     1       2.013  -1.001   1.493  1.00  0.00     0.136 A 
ATOM      2  N   UNL     1       1.259  -1.919   2.164  1.00  0.00    -0.241 NA
ATOM      3  C   UNL     1      -0.010  -1.897   2.333  1.00  0.00     0.115 A 
ATOM      4  C   UNL     1      -1.051  -0.956   1.920  1.00  0.00     0.049 A 
ATOM      5  C   UNL     1      -0.808   0.133   1.200  1.00  0.00     0.074 A 
ATOM      6  N   UNL     1      -1.762   1.030   0.772  1.00  0.00    -0.303 N 
ATOM      7  C   UNL     1      -1.187   2.015  -0.025  1.00  0.00     0.277 A 
ATOM      8  O   UNL     1      -1.780   2.888  -0.637  1.00  0.00    -0.267 OA
ATOM      9  C   UNL     1       0.288   1.763  -0.002  1.00  0.00     0.133 A 
ATOM     10  C   UNL     1       0.450   0.620   0.699  1.00  0.00     0.118 A 
ATOM     11  N   UNL     1       1.683   0.078   0.867  1.00  0.00    -0.228 NA
ENDROOT
BRANCH   1  12
ATOM     12  C   UNL     1       3.514  -1.375   1.502  1.00  0.00     0.084 C 
ATOM     13  C   UNL     1       4.397  -0.156   1.786  1.00  0.00     0.021 C 
BRANCH  12  14
ATOM     14  C   UNL     1       3.921  -2.098   0.224  1.00  0.00    -0.037 A 
ATOM     15  C   UNL     1       4.280  -3.456   0.276  1.00  0.00     0.007 A 
ATOM     16  C   UNL     1       3.938  -1.443  -1.020  1.00  0.00     0.007 A 
ATOM     17  C   UNL     1       4.658  -4.137  -0.883  1.00  0.00     0.039 A 
ATOM     18  C   UNL     1       4.316  -2.126  -2.178  1.00  0.00     0.039 A 
ATOM     19  C   UNL     1       4.674  -3.466  -2.098  1.00  0.00     0.123 A 
ATOM     20  F   UNL     1       5.040  -4.120  -3.209  1.00  0.00    -0.207 F 
ENDBRANCH  12  14
ENDBRANCH   1  12
BRANCH   9  21
ATOM     21  N   UNL     1       1.259   2.482  -0.666  1.00  0.00    -0.349 N 
ATOM     22  H   UNL     1       2.158   2.008  -0.599  1.00  0.00     0.167 HD
BRANCH  21  23
ATOM     23  C   UNL     1       1.419   3.878  -0.777  1.00  0.00     0.039 A 
ATOM     24  C   UNL     1       2.463   4.352  -1.591  1.00  0.00     0.026 A 
ATOM     25  C   UNL     1       0.579   4.823  -0.182  1.00  0.00     0.026 A 
ATOM     26  C   UNL     1       2.677   5.720  -1.778  1.00  0.00     0.002 A 
ATOM     27  C   UNL     1       0.790   6.195  -0.366  1.00  0.00     0.002 A 
ATOM     28  C   UNL     1       1.840   6.643  -1.162  1.00  0.00     0.000 A 
ENDBRANCH  21  23
ENDBRANCH   9  21
BRANCH   6  29
ATOM     29  C   UNL     1      -3.205   0.938   0.920  1.00  0.00     0.141 C 
BRANCH  29  30
ATOM     30  C   UNL     1      -3.884   0.170  -0.235  1.00  0.00     0.106 C 
BRANCH  30  31
ATOM     31  N   UNL     1      -3.856  -1.300  -0.070  1.00  0.00    -0.297 NA
ATOM     32  C   UNL     1      -4.125  -1.996  -1.352  1.00  0.00     0.113 C 
ATOM     33  C   UNL     1      -4.821  -1.747   0.964  1.00  0.00     0.113 C 
ATOM     34  C   UNL     1      -5.579  -2.469  -1.505  1.00  0.00     0.175 C 
ATOM     35  C   UNL     1      -5.263  -3.204   0.750  1.00  0.00     0.175 C 
ATOM     36  O   UNL     1      -5.985  -3.383  -0.476  1.00  0.00    -0.379 OA
ENDBRANCH  30  31
ENDBRANCH  29  30
ENDBRANCH   6  29
TORSDOF 7
