
     RDKit          3D

 58 60  0  0  0  0  0  0  0  0999 V2000
    8.3315   -1.0484    2.4631 C   0  0  0  0  0  0  0  0  0  0  0  0
    7.7059   -0.3064    1.2898 C   0  0  0  0  0  0  0  0  0  0  0  0
    6.4210    0.2649    1.7008 N   0  0  0  0  0  0  0  0  0  0  0  0
    5.6666    0.8969    0.5896 C   0  0  1  0  0  0  0  0  0  0  0  0
    6.4533    1.9723   -0.1568 C   0  0  0  0  0  0  0  0  0  0  0  0
    5.1129   -0.1825   -0.3691 C   0  0  0  0  0  0  0  0  0  0  0  0
    5.4324   -0.2729   -1.5508 O   0  0  0  0  0  0  0  0  0  0  0  0
    4.2274   -1.0515    0.2459 N   0  0  0  0  0  0  0  0  0  0  0  0
    3.5128   -2.0562   -0.5079 C   0  0  0  0  0  0  0  0  0  0  0  0
    2.1445   -1.5611   -0.8984 C   0  0  0  0  0  0  0  0  0  0  0  0
    1.0193   -1.8816   -0.1341 C   0  0  0  0  0  0  0  0  0  0  0  0
   -0.2430   -1.3957   -0.4938 C   0  0  0  0  0  0  0  0  0  0  0  0
   -0.4275   -0.5742   -1.6222 C   0  0  0  0  0  0  0  0  0  0  0  0
   -1.7730   -0.0800   -1.9789 C   0  0  0  0  0  0  0  0  0  0  0  0
   -2.1591    0.2569   -3.2753 C   0  0  0  0  0  0  0  0  0  0  0  0
   -3.3937    0.7161   -3.5987 N   0  0  0  0  0  0  0  0  0  0  0  0
   -4.2457    0.8142   -2.5593 C   0  0  0  0  0  0  0  0  0  0  0  0
   -5.4504    1.3081   -2.9383 O   0  0  0  0  0  0  0  0  0  0  0  0
   -3.9216    0.4755   -1.2436 C   0  0  0  0  0  0  0  0  0  0  0  0
   -4.8366    0.5675   -0.0866 C   0  0  0  0  0  0  0  0  0  0  0  0
   -4.3440    0.9087    1.1839 C   0  0  0  0  0  0  0  0  0  0  0  0
   -5.1859    0.9973    2.2965 C   0  0  0  0  0  0  0  0  0  0  0  0
   -6.5569    0.7410    2.1793 C   0  0  0  0  0  0  0  0  0  0  0  0
   -7.4344    0.8455    3.3957 C   0  0  0  0  0  0  0  0  0  0  0  0
   -7.0783    0.3838    0.9231 C   0  0  0  0  0  0  0  0  0  0  0  0
   -8.5423    0.0914    0.7365 C   0  0  0  0  0  0  0  0  0  0  0  0
   -6.2139    0.3006   -0.1864 C   0  0  0  0  0  0  0  0  0  0  0  0
   -2.6637    0.0280   -0.9562 N   0  0  0  0  0  0  0  0  0  0  0  0
    0.7184   -0.2478   -2.3690 C   0  0  0  0  0  0  0  0  0  0  0  0
    1.9831   -0.7329   -2.0144 C   0  0  0  0  0  0  0  0  0  0  0  0
    9.3013   -1.4639    2.1710 H   0  0  0  0  0  0  0  0  0  0  0  0
    7.6966   -1.8766    2.7945 H   0  0  0  0  0  0  0  0  0  0  0  0
    8.4953   -0.3782    3.3140 H   0  0  0  0  0  0  0  0  0  0  0  0
    8.3975    0.4827    0.9767 H   0  0  0  0  0  0  0  0  0  0  0  0
    7.5809   -1.0081    0.4576 H   0  0  0  0  0  0  0  0  0  0  0  0
    5.8493   -0.4786    2.1001 H   0  0  0  0  0  0  0  0  0  0  0  0
    4.7948    1.3901    1.0386 H   0  0  0  0  0  0  0  0  0  0  0  0
    6.8617    2.7148    0.5371 H   0  0  0  0  0  0  0  0  0  0  0  0
    7.2782    1.5531   -0.7429 H   0  0  0  0  0  0  0  0  0  0  0  0
    5.7986    2.4988   -0.8605 H   0  0  0  0  0  0  0  0  0  0  0  0
    3.8285   -0.7679    1.1305 H   0  0  0  0  0  0  0  0  0  0  0  0
    4.0797   -2.3513   -1.3981 H   0  0  0  0  0  0  0  0  0  0  0  0
    3.4294   -2.9421    0.1315 H   0  0  0  0  0  0  0  0  0  0  0  0
    1.1083   -2.5126    0.7476 H   0  0  0  0  0  0  0  0  0  0  0  0
   -1.1004   -1.6680    0.1221 H   0  0  0  0  0  0  0  0  0  0  0  0
   -1.4831    0.1564   -4.1176 H   0  0  0  0  0  0  0  0  0  0  0  0
   -5.2804    1.4546   -3.8865 H   0  0  0  0  0  0  0  0  0  0  0  0
   -3.2823    1.1138    1.3153 H   0  0  0  0  0  0  0  0  0  0  0  0
   -4.7555    1.2694    3.2578 H   0  0  0  0  0  0  0  0  0  0  0  0
   -8.2213    1.5891    3.2350 H   0  0  0  0  0  0  0  0  0  0  0  0
   -6.8644    1.1573    4.2775 H   0  0  0  0  0  0  0  0  0  0  0  0
   -7.8880   -0.1244    3.6216 H   0  0  0  0  0  0  0  0  0  0  0  0
   -8.7680   -0.1951   -0.2964 H   0  0  0  0  0  0  0  0  0  0  0  0
   -8.8505   -0.7375    1.3815 H   0  0  0  0  0  0  0  0  0  0  0  0
   -9.1390    0.9787    0.9705 H   0  0  0  0  0  0  0  0  0  0  0  0
   -6.6330    0.0091   -1.1484 H   0  0  0  0  0  0  0  0  0  0  0  0
    0.6570    0.4097   -3.2334 H   0  0  0  0  0  0  0  0  0  0  0  0
    2.8497   -0.4514   -2.6128 H   0  0  0  0  0  0  0  0  0  0  0  0
  1  2  1  0
  2  3  1  0
  3  4  1  0
  4  5  1  0
  4  6  1  0
  6  7  2  0
  6  8  1  0
  8  9  1  0
  9 10  1  0
 10 11  2  0
 11 12  1  0
 12 13  2  0
 13 14  1  0
 14 15  2  0
 15 16  1  0
 16 17  2  0
 17 18  1  0
 17 19  1  0
 19 20  1  0
 20 21  2  0
 21 22  1  0
 22 23  2  0
 23 24  1  0
 23 25  1  0
 25 26  1  0
 25 27  2  0
 19 28  2  0
 13 29  1  0
 29 30  2  0
 30 10  1  0
 28 14  1  0
 27 20  1  0
  1 31  1  0
  1 32  1  0
  1 33  1  0
  2 34  1  0
  2 35  1  0
  3 36  1  0
  4 37  1  1
  5 38  1  0
  5 39  1  0
  5 40  1  0
  8 41  1  0
  9 42  1  0
  9 43  1  0
 11 44  1  0
 12 45  1  0
 15 46  1  0
 18 47  1  0
 21 48  1  0
 22 49  1  0
 24 50  1  0
 24 51  1  0
 24 52  1  0
 26 53  1  0
 26 54  1  0
 26 55  1  0
 27 56  1  0
 29 57  1  0
 30 58  1  0
M  END
$$$$
