
     RDKit          3D

 74 78  0  0  0  0  0  0  0  0999 V2000
   -9.6639   -0.3443   -3.4949 C   0  0  0  0  0  0  0  0  0  0  0  0
   -8.8594   -0.4002   -2.2255 C   0  0  0  0  0  0  0  0  0  0  0  0
   -9.0553   -1.4607   -1.3310 C   0  0  0  0  0  0  0  0  0  0  0  0
   -8.3327   -1.5390   -0.1351 C   0  0  0  0  0  0  0  0  0  0  0  0
   -7.3870   -0.5630    0.2096 C   0  0  0  0  0  0  0  0  0  0  0  0
   -6.6123   -0.6145    1.4654 C   0  0  0  0  0  0  0  0  0  0  0  0
   -5.3223   -0.1796    1.3693 N   0  0  0  0  0  0  0  0  0  0  0  0
   -4.5829   -0.1719    2.5053 C   0  0  0  0  0  0  0  0  0  0  0  0
   -3.2117    0.3017    2.3691 C   0  0  0  0  0  0  0  0  0  0  0  0
   -2.1390   -0.5976    2.2966 C   0  0  0  0  0  0  0  0  0  0  0  0
   -0.8294   -0.1345    2.1204 C   0  0  0  0  0  0  0  0  0  0  0  0
   -0.5449    1.2373    2.0065 C   0  0  0  0  0  0  0  0  0  0  0  0
    0.8642    1.7266    1.7815 C   0  0  0  0  0  0  0  0  0  0  0  0
    1.1796    2.6313    0.6193 C   0  0  0  0  0  0  0  0  0  0  0  0
    1.6496    1.2100    0.5923 C   0  0  0  0  0  0  0  0  0  0  0  0
    3.0369    0.8905    0.7250 N   0  0  0  0  0  0  0  0  0  0  0  0
    3.5130   -0.4073    0.5880 C   0  0  0  0  0  0  0  0  0  0  0  0
    2.7821   -1.3685    0.3459 O   0  0  0  0  0  0  0  0  0  0  0  0
    5.0484   -0.5253    0.7815 C   0  0  1  0  0  0  0  0  0  0  0  0
    5.2551   -1.4612    1.9787 C   0  0  0  0  0  0  0  0  0  0  0  0
    5.6919   -1.0053   -0.4627 N   0  0  0  0  0  0  0  0  0  0  0  0
    5.5282   -0.0989   -1.6218 C   0  0  0  0  0  0  0  0  0  0  0  0
    6.8011    0.6762   -2.0194 C   0  0  0  0  0  0  0  0  0  0  0  0
    7.9065   -0.2529   -2.3395 N   0  0  0  0  0  0  0  0  0  0  0  0
    9.3653    0.3729   -2.8682 S   0  0  0  0  0  0  0  0  0  0  0  0
   10.1136    0.9521   -1.3589 C   0  0  0  0  0  0  0  0  0  0  0  0
   10.1757   -0.7239   -3.3557 O   0  0  0  0  0  0  0  0  0  0  0  0
    9.0882    1.5331   -3.6924 O   0  0  0  0  0  0  0  0  0  0  0  0
    7.8864   -1.5440   -1.6027 C   0  0  0  0  0  0  0  0  0  0  0  0
    7.0957   -1.4209   -0.2842 C   0  0  0  0  0  0  0  0  0  0  0  0
   -1.6188    2.1297    2.1255 C   0  0  0  0  0  0  0  0  0  0  0  0
   -2.9232    1.6661    2.3011 C   0  0  0  0  0  0  0  0  0  0  0  0
   -3.9111    2.5699    2.3946 F   0  0  0  0  0  0  0  0  0  0  0  0
   -5.1167   -0.6055    3.7162 C   0  0  0  0  0  0  0  0  0  0  0  0
   -6.3892   -1.0527    3.8459 N   0  0  0  0  0  0  0  0  0  0  0  0
   -7.1075   -1.0370    2.7033 C   0  0  0  0  0  0  0  0  0  0  0  0
   -8.3851   -1.4515    2.9030 O   0  0  0  0  0  0  0  0  0  0  0  0
   -7.1833    0.4866   -0.7108 C   0  0  0  0  0  0  0  0  0  0  0  0
   -7.9055    0.5837   -1.9151 C   0  0  0  0  0  0  0  0  0  0  0  0
   -7.6265    1.7322   -2.8449 C   0  0  0  0  0  0  0  0  0  0  0  0
   -9.0023   -0.4099   -4.3639 H   0  0  0  0  0  0  0  0  0  0  0  0
  -10.3840   -1.1669   -3.5554 H   0  0  0  0  0  0  0  0  0  0  0  0
  -10.2346    0.5879   -3.5409 H   0  0  0  0  0  0  0  0  0  0  0  0
   -9.7793   -2.2405   -1.5554 H   0  0  0  0  0  0  0  0  0  0  0  0
   -8.5197   -2.3873    0.5224 H   0  0  0  0  0  0  0  0  0  0  0  0
   -2.3172   -1.6719    2.3379 H   0  0  0  0  0  0  0  0  0  0  0  0
   -0.0180   -0.8579    2.0421 H   0  0  0  0  0  0  0  0  0  0  0  0
    1.4409    1.8865    2.6917 H   0  0  0  0  0  0  0  0  0  0  0  0
    0.3810    2.9031   -0.0627 H   0  0  0  0  0  0  0  0  0  0  0  0
    1.9024    3.4211    0.7723 H   0  0  0  0  0  0  0  0  0  0  0  0
    1.1299    0.5630   -0.1150 H   0  0  0  0  0  0  0  0  0  0  0  0
    3.6887    1.6461    0.9073 H   0  0  0  0  0  0  0  0  0  0  0  0
    5.4608    0.4576    1.0473 H   0  0  0  0  0  0  0  0  0  0  0  0
    4.9647   -2.4921    1.7392 H   0  0  0  0  0  0  0  0  0  0  0  0
    6.2969   -1.4750    2.3138 H   0  0  0  0  0  0  0  0  0  0  0  0
    4.6441   -1.1361    2.8296 H   0  0  0  0  0  0  0  0  0  0  0  0
    5.2325   -0.7255   -2.4757 H   0  0  0  0  0  0  0  0  0  0  0  0
    4.7082    0.6153   -1.4874 H   0  0  0  0  0  0  0  0  0  0  0  0
    6.5723    1.2853   -2.8990 H   0  0  0  0  0  0  0  0  0  0  0  0
    7.0988    1.3385   -1.1987 H   0  0  0  0  0  0  0  0  0  0  0  0
   11.0688    1.4133   -1.6201 H   0  0  0  0  0  0  0  0  0  0  0  0
   10.2830    0.0979   -0.6995 H   0  0  0  0  0  0  0  0  0  0  0  0
    9.4646    1.6948   -0.8908 H   0  0  0  0  0  0  0  0  0  0  0  0
    8.9042   -1.8806   -1.3729 H   0  0  0  0  0  0  0  0  0  0  0  0
    7.4351   -2.3019   -2.2543 H   0  0  0  0  0  0  0  0  0  0  0  0
    7.6207   -0.6991    0.3537 H   0  0  0  0  0  0  0  0  0  0  0  0
    7.1263   -2.3912    0.2236 H   0  0  0  0  0  0  0  0  0  0  0  0
   -1.4511    3.2024    2.0585 H   0  0  0  0  0  0  0  0  0  0  0  0
   -4.5310   -0.5984    4.6305 H   0  0  0  0  0  0  0  0  0  0  0  0
   -8.3619   -1.6116    3.8620 H   0  0  0  0  0  0  0  0  0  0  0  0
   -6.4433    1.2530   -0.4776 H   0  0  0  0  0  0  0  0  0  0  0  0
   -8.5449    2.2941   -3.0466 H   0  0  0  0  0  0  0  0  0  0  0  0
   -6.9097    2.4396   -2.4119 H   0  0  0  0  0  0  0  0  0  0  0  0
   -7.2007    1.3643   -3.7853 H   0  0  0  0  0  0  0  0  0  0  0  0
  1  2  1  0
  2  3  2  0
  3  4  1  0
  4  5  2  0
  5  6  1  0
  6  7  2  0
  7  8  1  0
  8  9  1  0
  9 10  2  0
 10 11  1  0
 11 12  2  0
 12 13  1  0
 13 14  1  0
 14 15  1  0
 15 16  1  0
 16 17  1  0
 17 18  2  0
 17 19  1  0
 19 20  1  0
 19 21  1  0
 21 22  1  0
 22 23  1  0
 23 24  1  0
 24 25  1  0
 25 26  1  0
 25 27  2  0
 25 28  2  0
 24 29  1  0
 29 30  1  0
 12 31  1  0
 31 32  2  0
 32 33  1  0
  8 34  2  0
 34 35  1  0
 35 36  2  0
 36 37  1  0
  5 38  1  0
 38 39  2  0
 39 40  1  0
 39  2  1  0
 36  6  1  0
 32  9  1  0
 15 13  1  0
 30 21  1  0
  1 41  1  0
  1 42  1  0
  1 43  1  0
  3 44  1  0
  4 45  1  0
 10 46  1  0
 11 47  1  0
 13 48  1  0
 14 49  1  0
 14 50  1  0
 15 51  1  0
 16 52  1  0
 19 53  1  1
 20 54  1  0
 20 55  1  0
 20 56  1  0
 22 57  1  0
 22 58  1  0
 23 59  1  0
 23 60  1  0
 26 61  1  0
 26 62  1  0
 26 63  1  0
 29 64  1  0
 29 65  1  0
 30 66  1  0
 30 67  1  0
 31 68  1  0
 34 69  1  0
 37 70  1  0
 38 71  1  0
 40 72  1  0
 40 73  1  0
 40 74  1  0
M  END
$$$$
