
     RDKit          3D

 54 57  0  0  0  0  0  0  0  0999 V2000
   -8.1583   -0.3928    1.8000 O   0  0  0  0  0  0  0  0  0  0  0  0
   -7.7170   -0.2714    0.6696 C   0  0  0  0  0  0  0  0  0  0  0  0
   -8.1424    0.7205   -0.1343 O   0  0  0  0  0  0  0  0  0  0  0  0
   -6.7054   -1.1682    0.0133 C   0  0  0  0  0  0  0  0  0  0  0  0
   -5.4015   -0.4451   -0.3205 C   0  0  0  0  0  0  0  0  0  0  0  0
   -4.6315   -0.0270    0.9390 C   0  0  0  0  0  0  0  0  0  0  0  0
   -3.2759    0.6698    0.6884 C   0  0  0  0  0  0  0  0  0  0  0  0
   -2.2228   -0.2971    0.1234 C   0  0  0  0  0  0  0  0  0  0  0  0
   -0.9178    0.3751   -0.2343 C   0  0  0  0  0  0  0  0  0  0  0  0
    0.2271   -0.4192   -0.4254 C   0  0  0  0  0  0  0  0  0  0  0  0
    1.4656    0.1402   -0.7846 C   0  0  0  0  0  0  0  0  0  0  0  0
    2.6542   -0.7090   -0.9832 C   0  0  0  0  0  0  0  0  0  0  0  0
    2.6010   -1.8253   -1.8334 C   0  0  0  0  0  0  0  0  0  0  0  0
    3.7203   -2.6354   -2.0278 C   0  0  0  0  0  0  0  0  0  0  0  0
    4.9175   -2.3448   -1.3728 C   0  0  0  0  0  0  0  0  0  0  0  0
    5.0207   -1.2396   -0.5125 C   0  0  0  0  0  0  0  0  0  0  0  0
    6.2885   -0.9388    0.1766 C   0  0  0  0  0  0  0  0  0  0  0  0
    6.9754   -1.9244    0.8977 C   0  0  0  0  0  0  0  0  0  0  0  0
    8.1694   -1.5973    1.5243 C   0  0  0  0  0  0  0  0  0  0  0  0
    8.7273   -0.3723    1.4829 N   0  0  0  0  0  0  0  0  0  0  0  0
    8.0529    0.5666    0.7909 C   0  0  0  0  0  0  0  0  0  0  0  0
    8.5872    1.7952    0.7343 F   0  0  0  0  0  0  0  0  0  0  0  0
    6.8561    0.3392    0.1333 C   0  0  0  0  0  0  0  0  0  0  0  0
    3.8757   -0.4379   -0.3378 C   0  0  0  0  0  0  0  0  0  0  0  0
    3.9494    0.6167    0.4941 F   0  0  0  0  0  0  0  0  0  0  0  0
    1.5283    1.5302   -0.9541 C   0  0  0  0  0  0  0  0  0  0  0  0
    0.3967    2.3306   -0.7781 C   0  0  0  0  0  0  0  0  0  0  0  0
   -0.8348    1.7615   -0.4316 C   0  0  0  0  0  0  0  0  0  0  0  0
   -2.0251    2.6592   -0.2173 C   0  0  0  0  0  0  0  0  0  0  0  0
   -3.3643    1.9115   -0.2126 C   0  0  0  0  0  0  0  0  0  0  0  0
   -4.3915    2.7804    0.2627 O   0  0  0  0  0  0  0  0  0  0  0  0
   -8.7677    1.2252    0.4268 H   0  0  0  0  0  0  0  0  0  0  0  0
   -7.1593   -1.5756   -0.8972 H   0  0  0  0  0  0  0  0  0  0  0  0
   -6.5133   -2.0184    0.6775 H   0  0  0  0  0  0  0  0  0  0  0  0
   -4.7863   -1.1201   -0.9244 H   0  0  0  0  0  0  0  0  0  0  0  0
   -5.6179    0.4329   -0.9385 H   0  0  0  0  0  0  0  0  0  0  0  0
   -4.4593   -0.9125    1.5646 H   0  0  0  0  0  0  0  0  0  0  0  0
   -5.2596    0.6460    1.5360 H   0  0  0  0  0  0  0  0  0  0  0  0
   -2.9305    1.0033    1.6788 H   0  0  0  0  0  0  0  0  0  0  0  0
   -2.0344   -1.0854    0.8633 H   0  0  0  0  0  0  0  0  0  0  0  0
   -2.5950   -0.7818   -0.7864 H   0  0  0  0  0  0  0  0  0  0  0  0
    0.1504   -1.4954   -0.2751 H   0  0  0  0  0  0  0  0  0  0  0  0
    1.6815   -2.0639   -2.3655 H   0  0  0  0  0  0  0  0  0  0  0  0
    3.6606   -3.4911   -2.6966 H   0  0  0  0  0  0  0  0  0  0  0  0
    5.7798   -2.9845   -1.5531 H   0  0  0  0  0  0  0  0  0  0  0  0
    6.5852   -2.9338    0.9873 H   0  0  0  0  0  0  0  0  0  0  0  0
    8.7221   -2.3386    2.0949 H   0  0  0  0  0  0  0  0  0  0  0  0
    6.3867    1.1568   -0.4022 H   0  0  0  0  0  0  0  0  0  0  0  0
    2.4676    2.0071   -1.2276 H   0  0  0  0  0  0  0  0  0  0  0  0
    0.4861    3.4068   -0.9110 H   0  0  0  0  0  0  0  0  0  0  0  0
   -1.8963    3.1912    0.7347 H   0  0  0  0  0  0  0  0  0  0  0  0
   -2.0593    3.4303   -0.9979 H   0  0  0  0  0  0  0  0  0  0  0  0
   -3.6230    1.6151   -1.2368 H   0  0  0  0  0  0  0  0  0  0  0  0
   -4.4430    3.5353   -0.3487 H   0  0  0  0  0  0  0  0  0  0  0  0
  1  2  2  0
  2  3  1  0
  2  4  1  0
  4  5  1  0
  5  6  1  0
  6  7  1  0
  7  8  1  0
  8  9  1  0
  9 10  2  0
 10 11  1  0
 11 12  1  0
 12 13  2  0
 13 14  1  0
 14 15  2  0
 15 16  1  0
 16 17  1  0
 17 18  2  0
 18 19  1  0
 19 20  2  0
 20 21  1  0
 21 22  1  0
 21 23  2  0
 16 24  2  0
 24 25  1  0
 11 26  2  0
 26 27  1  0
 27 28  2  0
 28 29  1  0
 29 30  1  0
 30 31  1  0
 30  7  1  0
 28  9  1  0
 24 12  1  0
 23 17  1  0
  3 32  1  0
  4 33  1  0
  4 34  1  0
  5 35  1  0
  5 36  1  0
  6 37  1  0
  6 38  1  0
  7 39  1  0
  8 40  1  0
  8 41  1  0
 10 42  1  0
 13 43  1  0
 14 44  1  0
 15 45  1  0
 18 46  1  0
 19 47  1  0
 23 48  1  0
 26 49  1  0
 27 50  1  0
 29 51  1  0
 29 52  1  0
 30 53  1  0
 31 54  1  0
M  END
$$$$
