
     RDKit          3D

 55 58  0  0  0  0  0  0  0  0999 V2000
    7.8647   -1.7772    1.4322 O   0  0  0  0  0  0  0  0  0  0  0  0
    6.4451   -1.7274    1.1610 S   0  0  0  0  0  0  0  0  0  0  0  0
    5.4936   -1.3069    2.1623 O   0  0  0  0  0  0  0  0  0  0  0  0
    6.0497   -3.2132    0.6718 O   0  0  0  0  0  0  0  0  0  0  0  0
    6.1759   -0.8401   -0.3672 C   0  0  0  0  0  0  0  0  0  0  0  0
    4.8360   -1.0964   -1.0478 C   0  0  0  0  0  0  0  0  0  0  0  0
    3.5786   -0.6834   -0.2760 C   0  0  0  0  0  0  0  0  0  0  0  0
    3.5017    0.7781    0.2364 C   0  0  0  0  0  0  0  0  0  0  0  0
    2.2131    0.9764    1.0618 C   0  0  0  0  0  0  0  0  0  0  0  0
    0.9693    1.1457    0.2173 C   0  0  0  0  0  0  0  0  0  0  0  0
   -0.2894    0.9578    0.8148 C   0  0  0  0  0  0  0  0  0  0  0  0
   -1.4836    1.1198    0.0913 C   0  0  0  0  0  0  0  0  0  0  0  0
   -2.7946    0.9213    0.7356 C   0  0  0  0  0  0  0  0  0  0  0  0
   -3.1109    1.5874    1.9304 C   0  0  0  0  0  0  0  0  0  0  0  0
   -4.3481    1.4048    2.5483 C   0  0  0  0  0  0  0  0  0  0  0  0
   -5.2952    0.5511    1.9812 C   0  0  0  0  0  0  0  0  0  0  0  0
   -5.0277   -0.1371    0.7865 C   0  0  0  0  0  0  0  0  0  0  0  0
   -6.0340   -1.0348    0.1881 C   0  0  0  0  0  0  0  0  0  0  0  0
   -6.3745   -0.9430   -1.1705 C   0  0  0  0  0  0  0  0  0  0  0  0
   -7.3312   -1.8023   -1.6965 C   0  0  0  0  0  0  0  0  0  0  0  0
   -7.9762   -2.7418   -0.9738 N   0  0  0  0  0  0  0  0  0  0  0  0
   -7.6385   -2.8254    0.3328 C   0  0  0  0  0  0  0  0  0  0  0  0
   -6.6964   -2.0106    0.9409 C   0  0  0  0  0  0  0  0  0  0  0  0
   -6.4320   -2.1781    2.2455 F   0  0  0  0  0  0  0  0  0  0  0  0
   -3.7700    0.0676    0.1855 C   0  0  0  0  0  0  0  0  0  0  0  0
   -3.4844   -0.5928   -0.9516 F   0  0  0  0  0  0  0  0  0  0  0  0
   -1.3851    1.4838   -1.2591 C   0  0  0  0  0  0  0  0  0  0  0  0
   -0.1418    1.6853   -1.8640 C   0  0  0  0  0  0  0  0  0  0  0  0
    1.0415    1.5319   -1.1321 C   0  0  0  0  0  0  0  0  0  0  0  0
    2.3662    1.7309   -1.8271 C   0  0  0  0  0  0  0  0  0  0  0  0
    3.5317    1.8726   -0.8450 C   0  0  0  0  0  0  0  0  0  0  0  0
    4.7672    1.8686   -1.5538 O   0  0  0  0  0  0  0  0  0  0  0  0
    6.8168   -3.8014    0.8422 H   0  0  0  0  0  0  0  0  0  0  0  0
    6.3254    0.2189   -0.1413 H   0  0  0  0  0  0  0  0  0  0  0  0
    6.9844   -1.1470   -1.0405 H   0  0  0  0  0  0  0  0  0  0  0  0
    4.7491   -2.1648   -1.2810 H   0  0  0  0  0  0  0  0  0  0  0  0
    4.8386   -0.5916   -2.0205 H   0  0  0  0  0  0  0  0  0  0  0  0
    2.7150   -0.9014   -0.9163 H   0  0  0  0  0  0  0  0  0  0  0  0
    3.4649   -1.3596    0.5801 H   0  0  0  0  0  0  0  0  0  0  0  0
    4.3547    0.9321    0.9084 H   0  0  0  0  0  0  0  0  0  0  0  0
    2.3195    1.8817    1.6740 H   0  0  0  0  0  0  0  0  0  0  0  0
    2.0839    0.1354    1.7544 H   0  0  0  0  0  0  0  0  0  0  0  0
   -0.3353    0.6629    1.8626 H   0  0  0  0  0  0  0  0  0  0  0  0
   -2.3920    2.2668    2.3852 H   0  0  0  0  0  0  0  0  0  0  0  0
   -4.5760    1.9301    3.4730 H   0  0  0  0  0  0  0  0  0  0  0  0
   -6.2540    0.4296    2.4831 H   0  0  0  0  0  0  0  0  0  0  0  0
   -5.9033   -0.2110   -1.8200 H   0  0  0  0  0  0  0  0  0  0  0  0
   -7.6097   -1.7516   -2.7458 H   0  0  0  0  0  0  0  0  0  0  0  0
   -8.1570   -3.5877    0.9049 H   0  0  0  0  0  0  0  0  0  0  0  0
   -2.2843    1.6168   -1.8572 H   0  0  0  0  0  0  0  0  0  0  0  0
   -0.1038    1.9623   -2.9155 H   0  0  0  0  0  0  0  0  0  0  0  0
    2.3273    2.6313   -2.4538 H   0  0  0  0  0  0  0  0  0  0  0  0
    2.5451    0.8920   -2.5113 H   0  0  0  0  0  0  0  0  0  0  0  0
    3.4526    2.8544   -0.3578 H   0  0  0  0  0  0  0  0  0  0  0  0
    5.4173    2.3291   -0.9947 H   0  0  0  0  0  0  0  0  0  0  0  0
  1  2  2  0
  2  3  2  0
  2  4  1  0
  2  5  1  0
  5  6  1  0
  6  7  1  0
  7  8  1  0
  8  9  1  0
  9 10  1  0
 10 11  2  0
 11 12  1  0
 12 13  1  0
 13 14  2  0
 14 15  1  0
 15 16  2  0
 16 17  1  0
 17 18  1  0
 18 19  2  0
 19 20  1  0
 20 21  2  0
 21 22  1  0
 22 23  2  0
 23 24  1  0
 17 25  2  0
 25 26  1  0
 12 27  2  0
 27 28  1  0
 28 29  2  0
 29 30  1  0
 30 31  1  0
 31 32  1  0
 31  8  1  0
 29 10  1  0
 25 13  1  0
 23 18  1  0
  4 33  1  0
  5 34  1  0
  5 35  1  0
  6 36  1  0
  6 37  1  0
  7 38  1  0
  7 39  1  0
  8 40  1  0
  9 41  1  0
  9 42  1  0
 11 43  1  0
 14 44  1  0
 15 45  1  0
 16 46  1  0
 19 47  1  0
 20 48  1  0
 22 49  1  0
 27 50  1  0
 28 51  1  0
 30 52  1  0
 30 53  1  0
 31 54  1  0
 32 55  1  0
M  END
$$$$
