REMARK SMILES CC(C)c1nnc2ccc(-c3ccc(O)c(CN4CCN(C)CC4)c3F)cn12
REMARK SMILES IDX 11 1 12 2 13 3 14 4 16 5 25 6 26 7 10 8 4 9 5 10 28 11 6 12
REMARK SMILES IDX 27 13 7 14 8 15 9 16 2 17 1 18 3 19 17 20 18 21 19 22 24 23
REMARK SMILES IDX 20 24 23 25 21 26 22 27 15 28
REMARK H PARENT 15 29
ROOT
ATOM      1  C   UNL     1      -0.908   0.858   0.033  1.00  0.00     0.020 A 
ATOM      2  C   UNL     1      -0.859   1.772   1.094  1.00  0.00     0.015 A 
ATOM      3  C   UNL     1       0.223   1.768   1.977  1.00  0.00     0.047 A 
ATOM      4  C   UNL     1       1.264   0.856   1.797  1.00  0.00     0.123 A 
ATOM      5  C   UNL     1       1.250  -0.062   0.741  1.00  0.00     0.044 A 
ATOM      6  C   UNL     1       0.151  -0.047  -0.129  1.00  0.00     0.139 A 
ATOM      7  F   UNL     1       0.100  -0.940  -1.133  1.00  0.00    -0.206 F 
ENDROOT
BRANCH   1   8
ATOM      8  C   UNL     1      -2.046   0.862  -0.904  1.00  0.00     0.001 A 
ATOM      9  C   UNL     1      -5.712   0.281  -1.140  1.00  0.00     0.139 A 
ATOM     10  N   UNL     1      -6.340   0.439  -2.292  1.00  0.00    -0.134 NA
ATOM     11  N   UNL     1      -4.366   0.551  -1.322  1.00  0.00    -0.286 N 
ATOM     12  N   UNL     1      -5.425   0.804  -3.247  1.00  0.00    -0.130 NA
ATOM     13  C   UNL     1      -3.278   0.549  -0.448  1.00  0.00     0.103 A 
ATOM     14  C   UNL     1      -4.248   0.866  -2.670  1.00  0.00     0.160 A 
ATOM     15  C   UNL     1      -2.958   1.184  -3.166  1.00  0.00     0.050 A 
ATOM     16  C   UNL     1      -1.905   1.181  -2.328  1.00  0.00     0.014 A 
BRANCH   9  17
ATOM     17  C   UNL     1      -6.391  -0.123   0.134  1.00  0.00     0.052 C 
ATOM     18  C   UNL     1      -5.904  -1.473   0.656  1.00  0.00     0.016 C 
ATOM     19  C   UNL     1      -6.328   0.965   1.204  1.00  0.00     0.016 C 
ENDBRANCH   9  17
ENDBRANCH   1   8
BRANCH   5  20
ATOM     20  C   UNL     1       2.370  -1.049   0.510  1.00  0.00     0.127 C 
BRANCH  20  21
ATOM     21  N   UNL     1       3.235  -0.689  -0.631  1.00  0.00    -0.296 NA
ATOM     22  C   UNL     1       4.121   0.455  -0.328  1.00  0.00     0.100 C 
ATOM     23  C   UNL     1       4.067  -1.839  -1.042  1.00  0.00     0.100 C 
ATOM     24  C   UNL     1       5.300   0.137   0.625  1.00  0.00     0.099 C 
ATOM     25  C   UNL     1       5.241  -2.169  -0.087  1.00  0.00     0.099 C 
ATOM     26  N   UNL     1       6.121  -1.028   0.236  1.00  0.00    -0.304 NA
ATOM     27  C   UNL     1       7.006  -0.706  -0.883  1.00  0.00     0.105 C 
ENDBRANCH  20  21
ENDBRANCH   5  20
BRANCH   4  28
ATOM     28  O   UNL     1       2.321   0.857   2.663  1.00  0.00    -0.508 OA
ATOM     29  H   UNL     1       2.182   1.539   3.341  1.00  0.00     0.293 HD
ENDBRANCH   4  28
TORSDOF 5
