MODEL        8USER    Run = 8USERUSER    Estimated Free Energy of Binding    = -12.00 kcal/mol  [=(1)+(2)+(3)-(4)]USERUSER    (1) Final Intermolecular Energy     = -13.79 kcal/molUSER        vdW + Hbond + desolv Energy     = -13.64 kcal/molUSER        Electrostatic Energy            =  -0.14 kcal/molUSER        Moving Ligand-Fixed Receptor    = -13.79 kcal/molUSER        Moving Ligand-Moving Receptor   =  +0.00 kcal/molUSER    (2) Final Total Internal Energy     =  -1.61 kcal/molUSER    (3) Torsional Free Energy           =  +1.79 kcal/molUSER    (4) Unbound System's Energy         =  -1.61 kcal/molUSERUSERREMARK SMILES Oc1nc2ncccc2n1C1CCN(Cc2ccc(-c3nc4ncccc4nc3-c3ccncc3)cc2)CC1REMARK SMILES IDX 11 1 12 2 13 3 14 4 38 5 39 6 10 7 2 8 3 9 4 10 9 11 5 12REMARK SMILES IDX 8 13 6 14 7 15 1 16 15 18 16 19 17 20 37 21 18 22 36 23REMARK SMILES IDX 19 24 20 25 21 26 29 27 22 28 28 29 23 30 27 31 24 32 26 33REMARK SMILES IDX 25 34 30 35 31 36 35 37 32 38 34 39 33 40REMARK H PARENT 1 17USER                              x       y       z     vdW  Elec       q    TypeUSER                           _______ _______ _______ _____ _____    ______ ____ROOTATOM      1  C   UNL     1      37.431  46.291  15.126 -0.38 -0.04    +0.095 C  ATOM      2  C   UNL     1      36.137  46.829  15.748 -0.38 -0.04    +0.041 C  ATOM      3  C   UNL     1      34.978  45.863  15.504 -0.33 -0.08    +0.087 C  ATOM      4  N   UNL     1      35.252  44.486  15.940 -0.13 +0.15    -0.299 NA ATOM      5  C   UNL     1      36.474  43.968  15.311 -0.38 -0.03    +0.087 C  ATOM      6  C   UNL     1      37.705  44.841  15.546 -0.34 -0.01    +0.041 C  ENDROOTBRANCH   1   7ATOM      7  N   UNL     1      38.571  47.166  15.359 -0.21 +0.11    -0.289 N  ATOM      8  C   UNL     1      38.914  48.234  14.571 -0.28 -0.12    +0.296 A  ATOM      9  N   UNL     1      39.977  48.866  14.984 -0.42 +0.06    -0.175 NA ATOM     10  C   UNL     1      40.360  48.177  16.100 -0.41 -0.04    +0.181 A  ATOM     11  C   UNL     1      39.506  47.104  16.368 -0.41 -0.02    +0.091 A  ATOM     12  N   UNL     1      41.434  48.484  16.860 -0.83 +0.01    -0.235 NA ATOM     13  C   UNL     1      39.723  46.269  17.466 -0.44 -0.01    +0.032 A  ATOM     14  C   UNL     1      41.628  47.664  17.913 -0.40 -0.01    +0.114 A  ATOM     15  C   UNL     1      40.831  46.579  18.252 -0.49 -0.00    +0.022 A  BRANCH   8  16ATOM     16  O   UNL     1      38.255  48.614  13.496 -0.33 +0.14    -0.480 OA ATOM     17  H   UNL     1      38.067  49.548  13.705 -0.27 -0.19    +0.296 HD ENDBRANCH   8  16ENDBRANCH   1   7BRANCH   4  18ATOM     18  C   UNL     1      35.267  44.317  17.402 -0.28 -0.05    +0.120 C  BRANCH  18  19ATOM     19  C   UNL     1      34.305  43.257  17.892 -0.31 +0.01    -0.034 A  ATOM     20  C   UNL     1      33.304  43.570  18.820 -0.38 -0.00    +0.006 A  ATOM     21  C   UNL     1      34.392  41.943  17.412 -0.36 -0.00    +0.006 A  ATOM     22  C   UNL     1      32.414  42.585  19.261 -0.37 -0.00    +0.011 A  ATOM     23  C   UNL     1      33.501  40.960  17.856 -0.24 -0.00    +0.011 A  ATOM     24  C   UNL     1      32.505  41.259  18.800 -0.39 -0.00    +0.002 A  BRANCH  24  25ATOM     25  C   UNL     1      31.556  40.239  19.283 -0.30 +0.01    +0.099 A  ATOM     26  N   UNL     1      32.034  39.493  20.319 -0.80 -0.09    -0.224 NA ATOM     27  C   UNL     1      30.266  40.030  18.770 -0.16 +0.00    +0.098 A  ATOM     28  C   UNL     1      31.240  38.570  20.865 -0.35 +0.03    +0.178 A  ATOM     29  N   UNL     1      29.440  39.105  19.328 -0.16 -0.03    -0.242 NA ATOM     30  N   UNL     1      31.717  37.844  21.882 -0.41 -0.01    -0.235 NA ATOM     31  C   UNL     1      29.932  38.389  20.360 -0.27 +0.01    +0.108 A  ATOM     32  C   UNL     1      30.919  36.912  22.439 -0.36 +0.00    +0.114 A  ATOM     33  C   UNL     1      29.141  37.421  20.960 -0.30 -0.00    +0.034 A  ATOM     34  C   UNL     1      29.630  36.663  22.017 -0.37 +0.00    +0.022 A  BRANCH  27  35ATOM     35  C   UNL     1      29.686  40.718  17.604 -0.29 -0.00    +0.005 A  ATOM     36  C   UNL     1      29.498  42.106  17.575 -0.18 -0.00    +0.030 A  ATOM     37  C   UNL     1      29.329  39.994  16.457 -0.32 +0.00    +0.030 A  ATOM     38  C   UNL     1      28.946  42.690  16.445 -0.19 -0.04    +0.111 A  ATOM     39  C   UNL     1      28.787  40.667  15.374 -0.31 -0.03    +0.111 A  ATOM     40  N   UNL     1      28.580  41.999  15.346 -0.11 +0.17    -0.265 NA ENDBRANCH  27  35ENDBRANCH  24  25ENDBRANCH  18  19ENDBRANCH   4  18TORSDOF 6TERENDMDL