REMARK SMILES CN1CCN(C(=O)Cn2cc(-c3ccc4nnc(-c5ccc(O)c(F)c5)n4c3)cn2)CC1
REMARK SMILES IDX 12 1 13 2 14 3 15 4 16 5 17 6 18 7 27 8 28 9 11 10 9 11
REMARK SMILES IDX 10 12 30 13 29 14 8 15 6 16 2 17 3 18 32 19 4 20 31 21 5 22
REMARK SMILES IDX 1 23 7 24 19 25 20 26 26 27 21 28 24 29 22 30 25 31 23 32
REMARK H PARENT 23 33
ROOT
ATOM      1  C   UNL     1      -1.618  -0.713  -2.055  1.00  0.00     0.002 A 
ATOM      2  C   UNL     1      -1.684  -0.588  -3.522  1.00  0.00     0.014 A 
ATOM      3  C   UNL     1      -2.737  -0.038  -4.157  1.00  0.00     0.050 A 
ATOM      4  C   UNL     1      -3.837   0.441  -3.401  1.00  0.00     0.161 A 
ATOM      5  N   UNL     1      -4.954   1.038  -3.742  1.00  0.00    -0.130 NA
ATOM      6  N   UNL     1      -5.656   1.297  -2.589  1.00  0.00    -0.129 NA
ATOM      7  C   UNL     1      -4.973   0.827  -1.558  1.00  0.00     0.168 A 
ATOM      8  N   UNL     1      -3.778   0.301  -2.023  1.00  0.00    -0.282 N 
ATOM      9  C   UNL     1      -2.682  -0.252  -1.359  1.00  0.00     0.103 A 
ENDROOT
BRANCH   1  10
ATOM     10  C   UNL     1      -0.471  -1.295  -1.420  1.00  0.00     0.021 A 
ATOM     11  N   UNL     1       1.097  -1.817   0.032  1.00  0.00    -0.263 N 
ATOM     12  C   UNL     1      -0.038  -1.069  -0.131  1.00  0.00     0.118 A 
ATOM     13  N   UNL     1       1.411  -2.546  -1.058  1.00  0.00    -0.180 NA
ATOM     14  C   UNL     1       0.463  -2.218  -1.940  1.00  0.00     0.143 A 
BRANCH  11  15
ATOM     15  C   UNL     1       1.898  -1.932   1.234  1.00  0.00     0.244 C 
BRANCH  15  16
ATOM     16  C   UNL     1       2.507  -0.603   1.624  1.00  0.00     0.244 C 
ATOM     17  N   UNL     1       6.091   0.910  -0.320  1.00  0.00    -0.303 NA
ATOM     18  C   UNL     1       5.350  -0.238  -0.877  1.00  0.00     0.105 C 
ATOM     19  C   UNL     1       5.157   1.771   0.430  1.00  0.00     0.105 C 
ATOM     20  C   UNL     1       4.505  -1.028   0.142  1.00  0.00     0.135 C 
ATOM     21  C   UNL     1       4.308   1.045   1.490  1.00  0.00     0.135 C 
ATOM     22  N   UNL     1       3.658  -0.166   0.977  1.00  0.00    -0.339 N 
ATOM     23  C   UNL     1       7.222   0.486   0.500  1.00  0.00     0.105 C 
ATOM     24  O   UNL     1       1.963   0.072   2.505  1.00  0.00    -0.273 OA
ENDBRANCH  15  16
ENDBRANCH  11  15
ENDBRANCH   1  10
BRANCH   7  25
ATOM     25  C   UNL     1      -5.403   0.896  -0.164  1.00  0.00     0.023 A 
ATOM     26  C   UNL     1      -5.863   2.119   0.354  1.00  0.00     0.016 A 
ATOM     27  C   UNL     1      -5.409  -0.237   0.660  1.00  0.00     0.055 A 
ATOM     28  C   UNL     1      -6.291   2.220   1.682  1.00  0.00     0.050 A 
ATOM     29  C   UNL     1      -5.839  -0.127   1.978  1.00  0.00     0.165 A 
ATOM     30  C   UNL     1      -6.273   1.092   2.488  1.00  0.00     0.151 A 
ATOM     31  F   UNL     1      -5.838  -1.209   2.769  1.00  0.00    -0.203 F 
BRANCH  30  32
ATOM     32  O   UNL     1      -6.695   1.204   3.781  1.00  0.00    -0.505 OA
ATOM     33  H   UNL     1      -6.639   0.315   4.179  1.00  0.00     0.293 HD
ENDBRANCH  30  32
ENDBRANCH   7  25
TORSDOF 5
