MODEL        8USER    Run = 8USERUSER    Estimated Free Energy of Binding    =  -9.69 kcal/mol  [=(1)+(2)+(3)-(4)]USERUSER    (1) Final Intermolecular Energy     = -11.18 kcal/molUSER        vdW + Hbond + desolv Energy     = -11.01 kcal/molUSER        Electrostatic Energy            =  -0.17 kcal/molUSER        Moving Ligand-Fixed Receptor    = -11.18 kcal/molUSER        Moving Ligand-Moving Receptor   =  +0.00 kcal/molUSER    (2) Final Total Internal Energy     =  -0.70 kcal/molUSER    (3) Torsional Free Energy           =  +1.49 kcal/molUSER    (4) Unbound System's Energy         =  -0.70 kcal/molUSERUSERREMARK SMILES CC(C)c1nnc2ccc(-c3ccc(O)c(CN4CCN(C)CC4)c3F)cn12REMARK SMILES IDX 11 1 12 2 13 3 14 4 16 5 25 6 26 7 10 8 4 9 5 10 28 11 6 12REMARK SMILES IDX 27 13 7 14 8 15 9 16 2 17 1 18 3 19 17 20 18 21 19 22 24 23REMARK SMILES IDX 20 24 23 25 21 26 22 27 15 28REMARK H PARENT 15 29USER                              x       y       z     vdW  Elec       q    TypeUSER                           _______ _______ _______ _____ _____    ______ ____ROOTATOM      1  C   UNL     1      36.904  44.789  16.996 -0.33 -0.01    +0.020 A  ATOM      2  C   UNL     1      36.206  44.104  15.992 -0.37 -0.01    +0.015 A  ATOM      3  C   UNL     1      35.381  43.025  16.319 -0.41 -0.02    +0.047 A  ATOM      4  C   UNL     1      35.244  42.634  17.652 -0.30 -0.04    +0.123 A  ATOM      5  C   UNL     1      35.919  43.304  18.678 -0.30 -0.01    +0.044 A  ATOM      6  C   UNL     1      36.748  44.379  18.328 -0.25 -0.03    +0.139 A  ATOM      7  F   UNL     1      37.431  45.019  19.293 -0.08 +0.02    -0.206 F  ENDROOTBRANCH   1   8ATOM      8  C   UNL     1      37.772  45.930  16.655 -0.38 -0.00    +0.001 A  ATOM      9  C   UNL     1      41.042  47.521  17.433 -0.41 -0.02    +0.139 A  ATOM     10  N   UNL     1      41.418  48.619  16.800 -0.97 +0.00    -0.134 NA ATOM     11  N   UNL     1      39.796  47.139  16.967 -0.28 +0.07    -0.286 N  ATOM     12  N   UNL     1      40.430  48.981  15.919 -0.53 +0.04    -0.130 NA ATOM     13  C   UNL     1      38.961  46.065  17.280 -0.35 -0.02    +0.103 A  ATOM     14  C   UNL     1      39.461  48.102  16.023 -0.38 -0.06    +0.160 A  ATOM     15  C   UNL     1      38.209  47.980  15.367 -0.46 -0.03    +0.050 A  ATOM     16  C   UNL     1      37.400  46.948  15.668 -0.40 -0.01    +0.014 A  BRANCH   9  17ATOM     17  C   UNL     1      41.869  46.834  18.478 -0.54 +0.00    +0.052 C  ATOM     18  C   UNL     1      42.959  47.737  19.051 -0.54 +0.00    +0.016 C  ATOM     19  C   UNL     1      41.018  46.192  19.572 -0.46 +0.00    +0.016 C  ENDBRANCH   9  17ENDBRANCH   1   8BRANCH   5  20ATOM     20  C   UNL     1      35.776  42.916  20.131 -0.42 -0.00    +0.127 C  BRANCH  20  21ATOM     21  N   UNL     1      37.058  42.537  20.759 -0.18 +0.00    -0.296 NA ATOM     22  C   UNL     1      37.657  43.646  21.531 -0.37 +0.00    +0.100 C  ATOM     23  C   UNL     1      36.880  41.375  21.654 -0.56 +0.00    +0.100 C  ATOM     24  C   UNL     1      36.952  43.966  22.873 -0.28 +0.01    +0.099 C  ATOM     25  C   UNL     1      36.166  41.687  22.993 -0.39 +0.00    +0.099 C  ATOM     26  N   UNL     1      36.747  42.805  23.763 -0.21 -0.03    -0.304 NA ATOM     27  C   UNL     1      37.993  42.409  24.419 -0.26 +0.01    +0.105 C  ENDBRANCH  20  21ENDBRANCH   5  20BRANCH   4  28ATOM     28  O   UNL     1      34.435  41.579  17.967 -0.21 +0.16    -0.508 OA ATOM     29  H   UNL     1      34.498  40.904  17.270 -0.38 -0.22    +0.293 HD ENDBRANCH   4  28TORSDOF 5TERENDMDL