MODEL        3USER    Run = 3USERUSER    Estimated Free Energy of Binding    = -10.23 kcal/mol  [=(1)+(2)+(3)-(4)]USERUSER    (1) Final Intermolecular Energy     = -11.72 kcal/molUSER        vdW + Hbond + desolv Energy     = -11.67 kcal/molUSER        Electrostatic Energy            =  -0.04 kcal/molUSER        Moving Ligand-Fixed Receptor    = -11.72 kcal/molUSER        Moving Ligand-Moving Receptor   =  +0.00 kcal/molUSER    (2) Final Total Internal Energy     =  -1.18 kcal/molUSER    (3) Torsional Free Energy           =  +1.49 kcal/molUSER    (4) Unbound System's Energy         =  -1.18 kcal/molUSERUSERREMARK SMILES CN1CCN(C(=O)Cn2cc(-c3ccc4nnc(-c5ccc(O)c(F)c5)n4c3)cn2)CC1REMARK SMILES IDX 12 1 13 2 14 3 15 4 16 5 17 6 18 7 27 8 28 9 11 10 9 11REMARK SMILES IDX 10 12 30 13 29 14 8 15 6 16 2 17 3 18 32 19 4 20 31 21 5 22REMARK SMILES IDX 1 23 7 24 19 25 20 26 26 27 21 28 24 29 22 30 25 31 23 32REMARK H PARENT 23 33USER                              x       y       z     vdW  Elec       q    TypeUSER                           _______ _______ _______ _____ _____    ______ ____ROOTATOM      1  C   UNL     1      39.464  45.486  19.423 -0.41 -0.00    +0.002 A  ATOM      2  C   UNL     1      40.707  45.784  20.156 -0.37 +0.00    +0.014 A  ATOM      3  C   UNL     1      41.631  46.650  19.698 -0.36 +0.00    +0.050 A  ATOM      4  C   UNL     1      41.419  47.307  18.459 -0.37 -0.01    +0.161 A  ATOM      5  N   UNL     1      42.115  48.202  17.800 -0.59 -0.00    -0.130 NA ATOM      6  N   UNL     1      41.424  48.504  16.651 -0.94 +0.00    -0.129 NA ATOM      7  C   UNL     1      40.327  47.766  16.606 -0.40 -0.03    +0.168 A  ATOM      8  N   UNL     1      40.258  47.007  17.764 -0.30 +0.04    -0.282 N  ATOM      9  C   UNL     1      39.289  46.124  18.243 -0.35 -0.02    +0.103 A  ENDROOTBRANCH   1  10ATOM     10  C   UNL     1      38.501  44.566  19.955 -0.35 -0.00    +0.021 A  ATOM     11  N   UNL     1      36.783  43.212  20.188 -0.22 +0.01    -0.263 N  ATOM     12  C   UNL     1      37.433  44.009  19.285 -0.25 -0.01    +0.118 A  ATOM     13  N   UNL     1      37.381  43.185  21.396 -0.27 -0.01    -0.180 NA ATOM     14  C   UNL     1      38.417  44.016  21.253 -0.25 +0.00    +0.143 A  BRANCH  11  15ATOM     15  C   UNL     1      35.614  42.392  19.942 -0.33 -0.01    +0.244 C  BRANCH  15  16ATOM     16  C   UNL     1      34.445  43.223  19.461 -0.30 -0.02    +0.244 C  ATOM     17  N   UNL     1      34.134  44.527  15.324 -0.07 +0.17    -0.303 NA ATOM     18  C   UNL     1      35.116  43.503  15.727 -0.28 -0.04    +0.105 C  ATOM     19  C   UNL     1      32.980  44.479  16.242 -0.31 -0.06    +0.105 C  ATOM     20  C   UNL     1      35.537  43.548  17.210 -0.31 -0.05    +0.135 C  ATOM     21  C   UNL     1      33.334  44.557  17.739 -0.29 -0.05    +0.135 C  ATOM     22  N   UNL     1      34.395  43.621  18.129 -0.08 +0.10    -0.339 N  ATOM     23  C   UNL     1      34.727  45.859  15.260 -0.31 -0.10    +0.105 C  ATOM     24  O   UNL     1      33.552  43.525  20.261 -0.83 -0.03    -0.273 OA ENDBRANCH  15  16ENDBRANCH  11  15ENDBRANCH   1  10BRANCH   7  25ATOM     25  C   UNL     1      39.343  47.789  15.528 -0.50 -0.01    +0.023 A  ATOM     26  C   UNL     1      39.238  46.682  14.668 -0.44 -0.00    +0.016 A  ATOM     27  C   UNL     1      38.469  48.870  15.354 -0.43 -0.04    +0.055 A  ATOM     28  C   UNL     1      38.301  46.666  13.629 -0.35 -0.01    +0.050 A  ATOM     29  C   UNL     1      37.539  48.844  14.320 -0.34 -0.11    +0.165 A  ATOM     30  C   UNL     1      37.457  47.753  13.461 -0.43 -0.06    +0.151 A  ATOM     31  F   UNL     1      36.707  49.881  14.149 -0.04 +0.17    -0.203 F  BRANCH  30  32ATOM     32  O   UNL     1      36.546  47.723  12.445 -0.66 +0.21    -0.505 OA ATOM     33  H   UNL     1      36.481  48.630  12.092 +0.07 -0.09    +0.293 HD ENDBRANCH  30  32ENDBRANCH   7  25TORSDOF 5TERENDMDL