MODEL        8USER    Run = 8USERUSER    Estimated Free Energy of Binding    = -10.24 kcal/mol  [=(1)+(2)+(3)-(4)]USERUSER    (1) Final Intermolecular Energy     = -11.73 kcal/molUSER        vdW + Hbond + desolv Energy     = -11.53 kcal/molUSER        Electrostatic Energy            =  -0.20 kcal/molUSER        Moving Ligand-Fixed Receptor    = -11.73 kcal/molUSER        Moving Ligand-Moving Receptor   =  +0.00 kcal/molUSER    (2) Final Total Internal Energy     =  -0.91 kcal/molUSER    (3) Torsional Free Energy           =  +1.49 kcal/molUSER    (4) Unbound System's Energy         =  -0.91 kcal/molUSERUSERREMARK SMILES CNC1=C(c2ccc(C(N)=O)cc2)C=C(c2ccc3cc(F)ccc3c2)N[C@@H]1NREMARK SMILES IDX 3 1 4 2 14 3 15 4 27 5 28 6 2 8 1 9 5 11 6 12 13 13 7 14REMARK SMILES IDX 12 15 8 16 9 17 10 18 11 19 29 22 16 25 17 26 26 27 18 28REMARK SMILES IDX 25 29 19 30 24 31 20 32 23 33 21 34 22 35REMARK H PARENT 27 7 2 10 10 20 10 21 29 23 29 24USER                              x       y       z     vdW  Elec       q    TypeUSER                           _______ _______ _______ _____ _____    ______ ____ROOTATOM      1  C   UNL     1      33.592  42.875  16.978 -0.38 -0.02    +0.056 C  ATOM      2  C   UNL     1      34.763  43.568  17.073 -0.40 -0.00    +0.006 C  ATOM      3  C   UNL     1      35.564  43.494  18.290 -0.36 -0.01    +0.037 C  ATOM      4  C   UNL     1      35.096  42.873  19.382 -0.45 -0.00    +0.044 C  ATOM      5  N   UNL     1      33.853  42.287  19.385 -0.17 +0.00    -0.364 N  ATOM      6  C   UNL     1      33.122  41.988  18.180 -0.32 -0.04    +0.193 C  ATOM      7  H   UNL     1      33.668  41.641  20.142 +0.09 +0.04    +0.162 HD ENDROOTBRANCH   1   8ATOM      8  N   UNL     1      32.785  42.867  15.815 -0.04 +0.22    -0.388 N  ATOM      9  C   UNL     1      31.922  43.971  15.426 -0.32 -0.07    +0.139 C  ATOM     10  H   UNL     1      33.291  42.488  15.015 -0.41 -0.11    +0.160 HD ENDBRANCH   1   8BRANCH   2  11ATOM     11  C   UNL     1      35.246  44.384  15.939 -0.33 +0.01    -0.016 A  ATOM     12  C   UNL     1      36.388  43.999  15.226 -0.37 -0.00    +0.009 A  ATOM     13  C   UNL     1      34.576  45.561  15.584 -0.31 -0.01    +0.009 A  ATOM     14  C   UNL     1      36.851  44.775  14.158 -0.38 -0.01    +0.014 A  ATOM     15  C   UNL     1      35.038  46.337  14.517 -0.34 -0.01    +0.014 A  ATOM     16  C   UNL     1      36.169  45.942  13.793 -0.44 -0.02    +0.039 A  BRANCH  16  17ATOM     17  C   UNL     1      36.620  46.805  12.667 -0.51 -0.11    +0.248 C  ATOM     18  N   UNL     1      35.794  46.916  11.582 -0.29 +0.22    -0.366 N  ATOM     19  O   UNL     1      37.673  47.426  12.714 -0.97 +0.05    -0.270 OA ATOM     20  H   UNL     1      36.068  47.603  10.891 -0.03 -0.13    +0.159 HD ATOM     21  H   UNL     1      34.818  46.658  11.616 -0.18 -0.15    +0.159 HD ENDBRANCH  16  17ENDBRANCH   2  11BRANCH   6  22ATOM     22  N   UNL     1      33.148  40.589  17.771 -0.21 +0.11    -0.306 NA ATOM     23  H   UNL     1      34.133  40.377  17.627 -0.49 -0.08    +0.121 HD ATOM     24  H   UNL     1      32.745  40.568  16.834 -0.32 -0.09    +0.121 HD ENDBRANCH   6  22BRANCH   4  25ATOM     25  C   UNL     1      35.906  42.786  20.608 -0.46 -0.00    -0.002 A  ATOM     26  C   UNL     1      36.003  41.576  21.302 -0.47 +0.00    +0.011 A  ATOM     27  C   UNL     1      36.581  43.913  21.100 -0.39 +0.00    +0.019 A  ATOM     28  C   UNL     1      36.770  41.486  22.467 -0.54 +0.00    +0.009 A  ATOM     29  C   UNL     1      37.355  43.840  22.270 -0.37 -0.00    -0.018 A  ATOM     30  C   UNL     1      37.451  42.608  22.962 -0.41 -0.00    -0.015 A  ATOM     31  C   UNL     1      38.035  44.966  22.768 -0.33 +0.00    +0.012 A  ATOM     32  C   UNL     1      38.224  42.534  24.130 -0.25 +0.00    +0.048 A  ATOM     33  C   UNL     1      38.800  44.876  23.930 -0.23 +0.00    +0.040 A  ATOM     34  C   UNL     1      38.887  43.663  24.599 -0.15 +0.00    +0.123 A  ATOM     35  F   UNL     1      39.622  43.578  25.716 -0.01 +0.00    -0.207 F  ENDBRANCH   4  25TORSDOF 5TERENDMDL