REMARK SMILES CNC1=C(c2ccc(C(N)=O)cc2)C=C(c2ccc3cc(F)ccc3c2)N[C@@H]1N
REMARK SMILES IDX 3 1 4 2 14 3 15 4 27 5 28 6 2 8 1 9 5 11 6 12 13 13 7 14
REMARK SMILES IDX 12 15 8 16 9 17 10 18 11 19 29 22 16 25 17 26 26 27 18 28
REMARK SMILES IDX 25 29 19 30 24 31 20 32 23 33 21 34 22 35
REMARK H PARENT 27 7 2 10 10 20 10 21 29 23 29 24
ROOT
ATOM      1  C   UNL     1      -1.402  -1.868  -0.419  1.00  0.00     0.056 C 
ATOM      2  C   UNL     1      -1.206  -0.576  -0.029  1.00  0.00     0.006 C 
ATOM      3  C   UNL     1       0.139  -0.012  -0.004  1.00  0.00     0.037 C 
ATOM      4  C   UNL     1       1.212  -0.788  -0.214  1.00  0.00     0.044 C 
ATOM      5  N   UNL     1       1.075  -2.133  -0.461  1.00  0.00    -0.364 N 
ATOM      6  C   UNL     1      -0.174  -2.737  -0.852  1.00  0.00     0.193 C 
ATOM      7  H   UNL     1       1.888  -2.599  -0.844  1.00  0.00     0.162 HD
ENDROOT
BRANCH   1   8
ATOM      8  N   UNL     1      -2.681  -2.468  -0.507  1.00  0.00    -0.388 N 
ATOM      9  C   UNL     1      -2.936  -3.869  -0.212  1.00  0.00     0.139 C 
ATOM     10  H   UNL     1      -3.402  -1.865  -0.111  1.00  0.00     0.160 HD
ENDBRANCH   1   8
BRANCH   2  11
ATOM     11  C   UNL     1      -2.354   0.276   0.350  1.00  0.00    -0.016 A 
ATOM     12  C   UNL     1      -3.051   0.999  -0.626  1.00  0.00     0.009 A 
ATOM     13  C   UNL     1      -2.737   0.382   1.692  1.00  0.00     0.009 A 
ATOM     14  C   UNL     1      -4.131   1.812  -0.267  1.00  0.00     0.014 A 
ATOM     15  C   UNL     1      -3.816   1.194   2.052  1.00  0.00     0.014 A 
ATOM     16  C   UNL     1      -4.525   1.903   1.074  1.00  0.00     0.039 A 
BRANCH  16  17
ATOM     17  C   UNL     1      -5.665   2.754   1.511  1.00  0.00     0.248 C 
ATOM     18  N   UNL     1      -6.601   3.092   0.573  1.00  0.00    -0.366 N 
ATOM     19  O   UNL     1      -5.789   3.115   2.674  1.00  0.00    -0.270 OA
ATOM     20  H   UNL     1      -7.424   3.565   0.925  1.00  0.00     0.159 HD
ATOM     21  H   UNL     1      -6.691   2.600  -0.304  1.00  0.00     0.159 HD
ENDBRANCH  16  17
ENDBRANCH   2  11
BRANCH   6  22
ATOM     22  N   UNL     1      -0.294  -3.048  -2.271  1.00  0.00    -0.306 NA
ATOM     23  H   UNL     1      -0.127  -2.164  -2.748  1.00  0.00     0.121 HD
ATOM     24  H   UNL     1      -1.284  -3.238  -2.429  1.00  0.00     0.121 HD
ENDBRANCH   6  22
BRANCH   4  25
ATOM     25  C   UNL     1       2.570  -0.221  -0.200  1.00  0.00    -0.002 A 
ATOM     26  C   UNL     1       3.362  -0.265  -1.352  1.00  0.00     0.011 A 
ATOM     27  C   UNL     1       3.089   0.362   0.965  1.00  0.00     0.019 A 
ATOM     28  C   UNL     1       4.652   0.271  -1.346  1.00  0.00     0.009 A 
ATOM     29  C   UNL     1       4.385   0.905   0.988  1.00  0.00    -0.018 A 
ATOM     30  C   UNL     1       5.176   0.859  -0.185  1.00  0.00    -0.015 A 
ATOM     31  C   UNL     1       4.911   1.491   2.153  1.00  0.00     0.012 A 
ATOM     32  C   UNL     1       6.470   1.401  -0.163  1.00  0.00     0.048 A 
ATOM     33  C   UNL     1       6.199   2.026   2.159  1.00  0.00     0.040 A 
ATOM     34  C   UNL     1       6.965   1.976   1.002  1.00  0.00     0.123 A 
ATOM     35  F   UNL     1       8.202   2.490   1.009  1.00  0.00    -0.207 F 
ENDBRANCH   4  25
TORSDOF 5
