MODEL        2USER    Run = 2USERUSER    Estimated Free Energy of Binding    =  -8.96 kcal/mol  [=(1)+(2)+(3)-(4)]USERUSER    (1) Final Intermolecular Energy     = -10.45 kcal/molUSER        vdW + Hbond + desolv Energy     = -10.35 kcal/molUSER        Electrostatic Energy            =  -0.10 kcal/molUSER        Moving Ligand-Fixed Receptor    = -10.45 kcal/molUSER        Moving Ligand-Moving Receptor   =  +0.00 kcal/molUSER    (2) Final Total Internal Energy     =  -2.24 kcal/molUSER    (3) Torsional Free Energy           =  +1.49 kcal/molUSER    (4) Unbound System's Energy         =  -2.24 kcal/molUSERUSERREMARK SMILES Nc1nccc(-c2cccc(Cl)c2NS(=O)(=O)c2nccs2)n1REMARK SMILES IDX 7 1 8 2 9 3 10 4 11 5 12 6 13 7 6 8 2 9 3 10 23 11 4 12 5 13REMARK SMILES IDX 1 14 14 17 15 19 16 20 17 21 18 22 19 23 22 24 20 25 21 26REMARK H PARENT 1 15 1 16 14 18USER                              x       y       z     vdW  Elec       q    TypeUSER                           _______ _______ _______ _____ _____    ______ ____ROOTATOM      1  C   UNL     1      39.312  46.202  17.581 -0.42 -0.00    +0.026 A  ATOM      2  C   UNL     1      38.059  45.615  17.866 -0.37 -0.00    +0.012 A  ATOM      3  C   UNL     1      36.992  45.676  16.967 -0.36 -0.00    +0.002 A  ATOM      4  C   UNL     1      37.150  46.330  15.751 -0.36 -0.01    +0.023 A  ATOM      5  C   UNL     1      38.379  46.904  15.434 -0.38 -0.03    +0.065 A  ATOM      6  Cl  UNL     1      38.529  47.720  13.914 -0.66 +0.02    -0.082 Cl ATOM      7  C   UNL     1      39.466  46.843  16.334 -0.41 -0.02    +0.077 A  ENDROOTBRANCH   1   8ATOM      8  C   UNL     1      40.362  46.147  18.613 -0.41 -0.00    +0.078 A  ATOM      9  C   UNL     1      42.410  46.923  19.302 -0.35 +0.03    +0.220 A  ATOM     10  N   UNL     1      42.455  46.107  20.355 -0.22 -0.06    -0.222 NA ATOM     11  N   UNL     1      41.421  46.963  18.405 -0.38 +0.01    -0.213 NA ATOM     12  C   UNL     1      41.390  45.305  20.533 -0.29 +0.01    +0.117 A  ATOM     13  C   UNL     1      40.309  45.281  19.686 -0.39 +0.00    +0.049 A  BRANCH   9  14ATOM     14  N   UNL     1      43.489  47.757  19.098 -0.25 -0.05    -0.368 N  ATOM     15  H   UNL     1      43.166  48.643  18.736 -0.33 -0.01    +0.159 HD ATOM     16  H   UNL     1      44.065  47.775  19.928 -0.46 +0.04    +0.159 HD ENDBRANCH   9  14ENDBRANCH   1   8BRANCH   7  17ATOM     17  N   UNL     1      40.757  47.337  15.896 -0.27 +0.03    -0.275 N  ATOM     18  H   UNL     1      41.528  46.962  16.458 -0.29 -0.02    +0.180 HD BRANCH  17  19ATOM     19  S   UNL     1      40.929  49.050  15.998 -0.59 -0.05    +0.289 S  ATOM     20  O   UNL     1      39.618  49.660  15.909 -0.44 +0.11    -0.199 OA ATOM     21  O   UNL     1      41.777  49.274  17.151 -0.99 -0.04    -0.199 OA BRANCH  19  22ATOM     22  C   UNL     1      41.889  49.605  14.602 -0.37 -0.02    +0.230 A  ATOM     23  N   UNL     1      42.166  48.880  13.530 -0.07 +0.01    -0.232 NA ATOM     24  S   UNL     1      42.543  51.184  14.640 -0.44 +0.02    -0.110 S  ATOM     25  C   UNL     1      42.928  49.641  12.664 -0.43 -0.03    +0.124 A  ATOM     26  C   UNL     1      43.229  50.917  13.091 -0.43 -0.04    +0.088 A  ENDBRANCH  19  22ENDBRANCH  17  19ENDBRANCH   7  17TORSDOF 5TERENDMDL