REMARK SMILES Nc1nccc(-c2cccc(Cl)c2NS(=O)(=O)c2nccs2)n1
REMARK SMILES IDX 7 1 8 2 9 3 10 4 11 5 12 6 13 7 6 8 2 9 3 10 23 11 4 12 5 13
REMARK SMILES IDX 1 14 14 17 15 19 16 20 17 21 18 22 19 23 22 24 20 25 21 26
REMARK H PARENT 1 15 1 16 14 18
ROOT
ATOM      1  C   UNL     1      -0.740   0.761  -1.197  1.00  0.00     0.026 A 
ATOM      2  C   UNL     1      -1.514   0.459  -2.339  1.00  0.00     0.012 A 
ATOM      3  C   UNL     1      -1.238   1.020  -3.588  1.00  0.00     0.002 A 
ATOM      4  C   UNL     1      -0.176   1.904  -3.729  1.00  0.00     0.023 A 
ATOM      5  C   UNL     1       0.616   2.209  -2.624  1.00  0.00     0.065 A 
ATOM      6  Cl  UNL     1       1.922   3.325  -2.841  1.00  0.00    -0.082 Cl
ATOM      7  C   UNL     1       0.350   1.642  -1.358  1.00  0.00     0.077 A 
ENDROOT
BRANCH   1   8
ATOM      8  C   UNL     1      -1.140   0.176   0.095  1.00  0.00     0.078 A 
ATOM      9  C   UNL     1      -1.786  -1.718   1.220  1.00  0.00     0.220 A 
ATOM     10  N   UNL     1      -1.998  -1.064   2.363  1.00  0.00    -0.222 NA
ATOM     11  N   UNL     1      -1.391  -1.153   0.076  1.00  0.00    -0.213 NA
ATOM     12  C   UNL     1      -1.744   0.256   2.349  1.00  0.00     0.117 A 
ATOM     13  C   UNL     1      -1.312   0.934   1.235  1.00  0.00     0.049 A 
BRANCH   9  14
ATOM     14  N   UNL     1      -2.037  -3.074   1.208  1.00  0.00    -0.368 N 
ATOM     15  H   UNL     1      -2.708  -3.298   1.928  1.00  0.00     0.159 HD
ATOM     16  H   UNL     1      -2.247  -3.372   0.266  1.00  0.00     0.159 HD
ENDBRANCH   9  14
ENDBRANCH   1   8
BRANCH   7  17
ATOM     17  N   UNL     1       1.285   1.888  -0.278  1.00  0.00    -0.275 N 
ATOM     18  H   UNL     1       1.748   2.798  -0.364  1.00  0.00     0.180 HD
BRANCH  17  19
ATOM     19  S   UNL     1       2.572   0.744  -0.183  1.00  0.00     0.289 S 
ATOM     20  O   UNL     1       2.690   0.063  -1.456  1.00  0.00    -0.199 OA
ATOM     21  O   UNL     1       3.689   1.481   0.373  1.00  0.00    -0.199 OA
BRANCH  19  22
ATOM     22  C   UNL     1       2.157  -0.471   1.054  1.00  0.00     0.230 A 
ATOM     23  N   UNL     1       1.671  -0.202   2.255  1.00  0.00    -0.232 NA
ATOM     24  S   UNL     1       2.431  -2.121   0.698  1.00  0.00    -0.110 S 
ATOM     25  C   UNL     1       1.474  -1.391   2.931  1.00  0.00     0.124 A 
ATOM     26  C   UNL     1       1.823  -2.536   2.247  1.00  0.00     0.088 A 
ENDBRANCH  19  22
ENDBRANCH  17  19
ENDBRANCH   7  17
TORSDOF 5
