REMARK SMILES COc1ccc(O)c(C(=O)c2ccc(S(=O)(=O)N[C@@H]3CCCN(C)C[C@@H]3NC(=O)c3ccnc(Cl)c3)cc2)c1F
REMARK SMILES IDX 18 1 15 3 16 4 17 5 14 6 11 7 12 8 38 9 13 10 37 11 9 12
REMARK SMILES IDX 10 13 8 14 3 15 4 16 39 17 5 18 6 19 40 20 2 21 1 22 7 23
REMARK SMILES IDX 19 25 20 26 21 27 22 28 23 29 24 30 25 31 26 33 27 35 28 36
REMARK SMILES IDX 29 38 30 39 31 40 36 41 32 42 34 43 33 44 35 45
REMARK H PARENT 18 2 7 24 27 37
REMARK Flexibility Score:   99.900
ROOT
ATOM      1  N   UNL     1      -1.627  -2.680   0.988  1.00  0.00    -0.206 NA
ATOM      2  H   UNL     1      -1.559  -3.546   0.452  1.00  0.00     0.141 HD
ENDROOT
BRANCH   1   3
ATOM      3  S   UNL     1      -0.968  -2.849   2.528  1.00  0.00     0.240 S 
ATOM      4  O   UNL     1      -0.223  -4.089   2.503  1.00  0.00    -0.207 OA
ATOM      5  O   UNL     1      -1.986  -2.590   3.519  1.00  0.00    -0.207 OA
BRANCH   3   6
ATOM      6  C   UNL     1       0.203  -1.517   2.537  1.00  0.00     0.082 A 
ATOM      7  C   UNL     1       2.016   0.594   2.410  1.00  0.00     0.023 A 
ATOM      8  C   UNL     1       0.721   0.810   2.901  1.00  0.00     0.013 A 
ATOM      9  C   UNL     1       2.425  -0.701   2.065  1.00  0.00     0.013 A 
ATOM     10  C   UNL     1      -0.191  -0.246   2.964  1.00  0.00     0.022 A 
ATOM     11  C   UNL     1       1.515  -1.757   2.118  1.00  0.00     0.022 A 
BRANCH   7  12
ATOM     12  C   UNL     1       2.923   1.759   2.282  1.00  0.00     0.199 C 
ATOM     13  O   UNL     1       2.880   2.642   3.135  1.00  0.00    -0.288 OA
BRANCH  12  14
ATOM     14  C   UNL     1       3.896   1.901   1.171  1.00  0.00     0.104 A 
ATOM     15  C   UNL     1       4.619   1.451  -1.117  1.00  0.00     0.155 A 
ATOM     16  C   UNL     1       5.789   2.179  -0.891  1.00  0.00     0.053 A 
ATOM     17  C   UNL     1       3.679   1.330  -0.084  1.00  0.00     0.179 A 
ATOM     18  C   UNL     1       6.003   2.788   0.348  1.00  0.00     0.051 A 
ATOM     19  C   UNL     1       5.058   2.658   1.365  1.00  0.00     0.130 A 
ATOM     20  F   UNL     1       2.532   0.678  -0.343  1.00  0.00    -0.202 F 
BRANCH  15  21
ATOM     21  O   UNL     1       4.287   0.818  -2.284  1.00  0.00    -0.494 OA
ATOM     22  C   UNL     1       5.145   1.024  -3.400  1.00  0.00     0.278 C 
ENDBRANCH  15  21
BRANCH  19  23
ATOM     23  O   UNL     1       5.333   3.310   2.537  1.00  0.00    -0.507 OA
ATOM     24  H   UNL     1       4.501   3.350   3.060  1.00  0.00     0.293 HD
ENDBRANCH  19  23
ENDBRANCH  12  14
ENDBRANCH   7  12
ENDBRANCH   3   6
ENDBRANCH   1   3
BRANCH   1  25
ATOM     25  C   UNL     1      -2.839  -1.833   0.804  1.00  0.00     0.093 C 
BRANCH  25  26
ATOM     26  C   UNL     1      -4.095  -2.690   1.009  1.00  0.00     0.023 C 
BRANCH  26  27
ATOM     27  C   UNL     1      -4.837  -3.222  -0.215  1.00  0.00     0.017 C 
BRANCH  27  28
ATOM     28  C   UNL     1      -3.964  -3.786  -1.334  1.00  0.00     0.084 C 
BRANCH  28  29
ATOM     29  N   UNL     1      -3.433  -2.819  -2.294  1.00  0.00    -0.304 NA
ATOM     30  C   UNL     1      -4.472  -2.129  -3.059  1.00  0.00     0.105 C 
BRANCH  29  31
ATOM     31  C   UNL     1      -2.422  -1.901  -1.772  1.00  0.00     0.110 CG0
ATOM     32  G   UNL     1      -2.765  -1.043  -0.529  1.00  0.00     0.000 G0
ENDBRANCH  29  31
ENDBRANCH  28  29
ENDBRANCH  27  28
ENDBRANCH  26  27
ENDBRANCH  25  26
BRANCH  25  33
ATOM     33  C   UNL     1      -2.765  -1.043  -0.529  1.00  0.00     0.114 CG0
ATOM     34  G   UNL     1      -2.422  -1.901  -1.772  1.00  0.00     0.000 G0
BRANCH  33  35
ATOM     35  N   UNL     1      -1.787   0.060  -0.432  1.00  0.00    -0.346 N 
ATOM     36  C   UNL     1      -2.142   1.257   0.156  1.00  0.00     0.251 C 
ATOM     37  H   UNL     1      -0.809  -0.178  -0.512  1.00  0.00     0.164 HD
ATOM     38  O   UNL     1      -3.236   1.443   0.680  1.00  0.00    -0.269 OA
BRANCH  36  39
ATOM     39  C   UNL     1      -1.138   2.352   0.136  1.00  0.00     0.044 A 
ATOM     40  C   UNL     1      -1.276   3.390   1.064  1.00  0.00     0.034 A 
ATOM     41  C   UNL     1      -0.134   2.418  -0.828  1.00  0.00     0.054 A 
ATOM     42  C   UNL     1      -0.384   4.446   1.006  1.00  0.00     0.113 A 
ATOM     43  C   UNL     1       0.686   3.531  -0.809  1.00  0.00     0.129 A 
ATOM     44  N   UNL     1       0.601   4.535   0.088  1.00  0.00    -0.245 NA
ATOM     45  Cl  UNL     1       1.882   3.763  -2.015  1.00  0.00    -0.062 Cl
ENDBRANCH  36  39
ENDBRANCH  33  35
ENDBRANCH  25  33
ENDBRANCH   1  25
TORSDOF 9
