MODEL        8USER    Run = 8USERUSER    Estimated Free Energy of Binding    = -10.23 kcal/mol  [=(1)+(2)+(3)-(4)]USERUSER    (1) Final Intermolecular Energy     = -12.92 kcal/molUSER        vdW + Hbond + desolv Energy     = -12.89 kcal/molUSER        Electrostatic Energy            =  -0.02 kcal/molUSER        Moving Ligand-Fixed Receptor    = -12.92 kcal/molUSER        Moving Ligand-Moving Receptor   =  +0.00 kcal/molUSER    (2) Final Total Internal Energy     =  -1.69 kcal/molUSER    (3) Torsional Free Energy           =  +2.68 kcal/molUSER    (4) Unbound System's Energy         =  -1.69 kcal/molUSERUSERREMARK SMILES COc1cc(F)c(O)c(C(=O)c2ccc(C(=O)N[C@@H]3CCN(C)C[C@H]3NC(=O)c3cnc(OC)nc3)cc2)c1REMARK SMILES IDX 16 1 17 2 18 3 15 5 12 6 13 7 38 8 14 9 37 10 10 11 11 12REMARK SMILES IDX 9 13 3 14 4 15 39 16 5 17 7 18 6 19 2 20 1 21 8 22 19 24REMARK SMILES IDX 20 25 25 26 21 27 24 28 22 29 23 30 26 31 27 32 28 34 29 35REMARK SMILES IDX 30 36 36 37 31 38 35 39 32 40 33 41 34 42REMARK H PARENT 18 4 8 23 26 33USER                              x       y       z     vdW  Elec       q    TypeUSER                           _______ _______ _______ _____ _____    ______ ____ROOTATOM      1  C   UNL     1      31.554  43.584  16.249 -0.21 -0.10    +0.251 C  ATOM      2  O   UNL     1      31.530  44.809  16.224 -0.49 +0.10    -0.269 OA ATOM      3  N   UNL     1      32.722  42.852  16.199 -0.11 +0.18    -0.347 N  ATOM      4  H   UNL     1      32.684  41.841  16.216 -0.47 -0.13    +0.164 HD ENDROOTBRANCH   1   5ATOM      5  C   UNL     1      30.283  42.813  16.314 -0.27 -0.02    +0.039 A  ATOM      6  C   UNL     1      27.849  41.438  16.508 -0.24 -0.00    +0.023 A  ATOM      7  C   UNL     1      28.990  40.784  16.024 -0.38 -0.00    +0.013 A  ATOM      8  C   UNL     1      27.920  42.785  16.878 -0.21 -0.00    +0.013 A  ATOM      9  C   UNL     1      30.207  41.465  15.938 -0.36 -0.01    +0.014 A  ATOM     10  C   UNL     1      29.138  43.465  16.793 -0.25 -0.00    +0.014 A  BRANCH   6  11ATOM     11  C   UNL     1      26.577  40.682  16.563 -0.23 -0.00    +0.196 C  ATOM     12  O   UNL     1      26.206  40.075  15.559 -0.68 -0.03    -0.288 OA BRANCH  11  13ATOM     13  C   UNL     1      25.718  40.643  17.774 -0.24 -0.00    +0.071 A  ATOM     14  C   UNL     1      24.895  41.653  19.834 -0.31 -0.03    +0.122 A  ATOM     15  C   UNL     1      24.088  40.540  20.055 -0.31 -0.02    +0.089 A  ATOM     16  C   UNL     1      25.712  41.699  18.697 -0.25 -0.01    +0.062 A  ATOM     17  C   UNL     1      24.113  39.479  19.152 -0.20 -0.06    +0.169 A  ATOM     18  C   UNL     1      24.928  39.513  18.022 -0.22 -0.02    +0.162 A  ATOM     19  F   UNL     1      23.340  38.412  19.396 -0.10 +0.20    -0.203 F  BRANCH  14  20ATOM     20  O   UNL     1      24.981  42.756  20.637 -0.18 +0.19    -0.497 OA ATOM     21  C   UNL     1      24.317  42.692  21.894 -0.47 -0.09    +0.278 C  ENDBRANCH  14  20BRANCH  18  22ATOM     22  O   UNL     1      24.918  38.423  17.192 -0.73 -0.00    -0.504 OA ATOM     23  H   UNL     1      24.660  38.725  16.292 -0.03 -0.08    +0.293 HD ENDBRANCH  18  22ENDBRANCH  11  13ENDBRANCH   6  11ENDBRANCH   1   5BRANCH   3  24ATOM     24  C   UNL     1      34.030  43.509  16.247 -0.33 -0.05    +0.107 C  ATOM     25  C   UNL     1      35.097  42.577  16.830 -0.48 -0.02    +0.042 C  ATOM     26  C   UNL     1      33.971  44.860  17.010 -0.30 -0.07    +0.118 C  ATOM     27  C   UNL     1      34.964  42.408  18.343 -0.41 -0.02    +0.086 C  ATOM     28  C   UNL     1      33.908  44.594  18.539 -0.37 -0.04    +0.111 C  ATOM     29  N   UNL     1      34.917  43.667  19.083 -0.16 +0.05    -0.304 NA ATOM     30  C   UNL     1      36.230  44.286  19.234 -0.36 -0.02    +0.105 C  BRANCH  26  31ATOM     31  N   UNL     1      35.085  45.741  16.616 -0.12 +0.28    -0.346 N  ATOM     32  C   UNL     1      35.249  46.123  15.298 -0.20 -0.24    +0.254 C  ATOM     33  H   UNL     1      35.920  45.680  17.185 +0.11 -0.09    +0.164 HD ATOM     34  O   UNL     1      34.457  45.843  14.406 -0.29 +0.23    -0.269 OA BRANCH  32  35ATOM     35  C   UNL     1      36.467  46.882  14.970 -0.34 -0.06    +0.076 A  ATOM     36  C   UNL     1      36.715  47.459  13.744 -0.44 -0.07    +0.132 A  ATOM     37  C   UNL     1      37.477  47.021  15.897 -0.31 -0.08    +0.132 A  ATOM     38  N   UNL     1      37.840  48.150  13.452 -0.74 +0.06    -0.203 NA ATOM     39  N   UNL     1      38.622  47.700  15.661 -0.30 +0.09    -0.203 NA ATOM     40  C   UNL     1      38.751  48.239  14.439 -0.25 -0.13    +0.316 A  BRANCH  40  41ATOM     41  O   UNL     1      39.926  48.926  14.235 -0.20 +0.17    -0.467 OA ATOM     42  C   UNL     1      40.574  49.297  15.442 -0.45 -0.08    +0.282 C  ENDBRANCH  40  41ENDBRANCH  32  35ENDBRANCH  26  31ENDBRANCH   3  24TORSDOF 9TERENDMDL