MODEL        7USER    Run = 7USERUSER    Estimated Free Energy of Binding    =  -6.30 kcal/mol  [=(1)+(2)+(3)-(4)]USERUSER    (1) Final Intermolecular Energy     = -11.37 kcal/molUSER        vdW + Hbond + desolv Energy     = -11.20 kcal/molUSER        Electrostatic Energy            =  -0.28 kcal/molUSER        Moving Ligand-Fixed Receptor    = -11.48 kcal/molUSER        Moving Ligand-Moving Receptor   =  +0.11 kcal/molUSER    (2) Final Total Internal Energy     =  -3.86 kcal/molUSER    (3) Torsional Free Energy           =  +5.07 kcal/molUSER    (4) Unbound System's Energy         =  -3.86 kcal/molUSERUSERREMARK SMILES COc1ccc(O)c(C(=O)c2ccc(C(=O)N[C@@H]3CCCN(CCO)C[C@H]3NC(=O)c3ccncc3)cc2)c1FREMARK SMILES IDX 18 1 17 3 15 4 16 5 14 7 11 8 12 9 38 10 13 11 37 12 9 13REMARK SMILES IDX 10 14 8 15 3 16 4 17 39 18 5 19 6 20 40 21 2 22 1 23 7 24REMARK SMILES IDX 27 26 26 27 22 28 21 29 20 30 19 31 23 33 24 34 25 35 28 37REMARK SMILES IDX 29 38 30 40 31 41 32 42 36 43 33 44 35 45 34 46REMARK H PARENT 17 6 7 25 25 36 28 39REMARK Flexibility Score:  100.900USER                              x       y       z     vdW  Elec       q    TypeUSER                           _______ _______ _______ _____ _____    ______ ____ROOTATOM      1  C   UNL     1      44.041  53.833   9.641 -0.22 -0.08    +0.106 CG0ATOM      2  G   UNL     1      44.646  52.981   8.506 +0.00 +0.00    +0.000 G0 ENDROOTBRANCH   1   3ATOM      3  N   UNL     1      43.443  52.975  10.672 -0.23 +0.27    -0.347 N  ATOM      4  C   UNL     1      44.212  52.178  11.495 -0.30 -0.13    +0.251 C  ATOM      5  O   UNL     1      45.428  52.068  11.403 -0.29 +0.12    -0.269 OA ATOM      6  H   UNL     1      42.437  52.959  10.770 -0.20 -0.19    +0.164 HD BRANCH   4   7ATOM      7  C   UNL     1      43.471  51.408  12.526 -0.44 -0.02    +0.039 A  ATOM      8  C   UNL     1      42.108  49.992  14.523 -0.63 -0.00    +0.023 A  ATOM      9  C   UNL     1      41.924  49.658  13.175 -0.20 -0.00    +0.013 A  ATOM     10  C   UNL     1      42.938  51.068  14.863 -0.02 -0.00    +0.013 A  ATOM     11  C   UNL     1      42.613  50.358  12.178 -0.53 -0.01    +0.014 A  ATOM     12  C   UNL     1      43.616  51.776  13.868 +0.02 -0.00    +0.014 A  BRANCH   8  13ATOM     13  C   UNL     1      41.385  49.292  15.613 -0.48 -0.01    +0.199 C  ATOM     14  O   UNL     1      41.543  49.678  16.772 -0.97 -0.02    -0.288 OA BRANCH  13  15ATOM     15  C   UNL     1      40.436  48.179  15.386 -0.48 -0.02    +0.104 A  ATOM     16  C   UNL     1      38.608  47.131  14.153 -0.34 -0.05    +0.155 A  ATOM     17  C   UNL     1      38.642  46.044  15.029 -0.36 -0.01    +0.053 A  ATOM     18  C   UNL     1      39.517  48.185  14.335 -0.30 -0.05    +0.179 A  ATOM     19  C   UNL     1      39.582  46.006  16.061 -0.31 -0.01    +0.051 A  ATOM     20  C   UNL     1      40.479  47.060  16.228 -0.38 -0.02    +0.130 A  ATOM     21  F   UNL     1      39.497  49.206  13.462 +0.16 +0.08    -0.202 F  BRANCH  16  22ATOM     22  O   UNL     1      37.740  47.277  13.103 -0.46 +0.13    -0.494 OA ATOM     23  C   UNL     1      36.584  48.075  13.319 -0.42 -0.14    +0.278 C  ENDBRANCH  16  22BRANCH  20  24ATOM     24  O   UNL     1      41.384  46.926  17.247 -0.09 +0.06    -0.507 OA ATOM     25  H   UNL     1      42.098  47.591  17.106 -0.31 -0.05    +0.293 HD ENDBRANCH  20  24ENDBRANCH  13  15ENDBRANCH   8  13ENDBRANCH   4   7ENDBRANCH   1   3BRANCH   1  26ATOM     26  C   UNL     1      44.993  54.886  10.262 -0.12 -0.08    +0.118 C  BRANCH  26  27ATOM     27  C   UNL     1      45.638  55.863   9.247 -0.06 -0.05    +0.111 C  BRANCH  27  28ATOM     28  N   UNL     1      44.825  55.978   8.024 -0.03 +0.14    -0.299 NA BRANCH  28  29ATOM     29  C   UNL     1      45.174  55.005   6.989 -0.16 +0.00    +0.085 C  BRANCH  29  30ATOM     30  C   UNL     1      44.532  53.619   7.120 -0.35 +0.00    +0.018 C  BRANCH  30  31ATOM     31  C   UNL     1      44.646  52.981   8.505 -0.30 -0.00    +0.028 CG0ATOM     32  G   UNL     1      44.040  53.832   9.641 +0.00 +0.00    +0.000 G0 ENDBRANCH  30  31ENDBRANCH  29  30ENDBRANCH  28  29BRANCH  28  33ATOM     33  C   UNL     1      44.765  57.362   7.508 -0.03 -0.05    +0.112 C  BRANCH  33  34ATOM     34  C   UNL     1      43.917  58.385   8.289 -0.04 -0.12    +0.171 C  BRANCH  34  35ATOM     35  O   UNL     1      43.368  57.830   9.480 -0.02 +0.46    -0.395 OA ATOM     36  H   UNL     1      43.338  56.864   9.366 -0.49 -0.41    +0.210 HD ENDBRANCH  34  35ENDBRANCH  33  34ENDBRANCH  28  33ENDBRANCH  27  28ENDBRANCH  26  27BRANCH  26  37ATOM     37  N   UNL     1      44.308  55.650  11.317 +0.01 +0.36    -0.346 N  ATOM     38  C   UNL     1      44.790  55.675  12.608 -0.07 -0.13    +0.251 C  ATOM     39  H   UNL     1      43.715  56.400  10.994 -0.38 -0.27    +0.164 HD ATOM     40  O   UNL     1      45.661  54.915  13.017 -0.08 +0.09    -0.269 OA BRANCH  38  41ATOM     41  C   UNL     1      44.198  56.683  13.524 -0.18 -0.02    +0.042 A  ATOM     42  C   UNL     1      43.045  57.400  13.203 -0.28 -0.02    +0.034 A  ATOM     43  C   UNL     1      44.853  56.935  14.730 -0.17 -0.01    +0.034 A  ATOM     44  C   UNL     1      42.583  58.324  14.124 -0.27 -0.05    +0.112 A  ATOM     45  C   UNL     1      44.310  57.878  15.582 -0.19 -0.03    +0.112 A  ATOM     46  N   UNL     1      43.187  58.575  15.306 -0.17 +0.09    -0.265 NA ENDBRANCH  38  41ENDBRANCH  26  37ENDBRANCH   1  26TORSDOF 11TERENDMDL