MODEL        10USER    Run = 10USERUSER    Estimated Free Energy of Binding    =  -7.78 kcal/mol  [=(1)+(2)+(3)-(4)]USERUSER    (1) Final Intermolecular Energy     = -12.25 kcal/molUSER        vdW + Hbond + desolv Energy     = -12.34 kcal/molUSER        Electrostatic Energy            =  -0.32 kcal/molUSER        Moving Ligand-Fixed Receptor    = -12.67 kcal/molUSER        Moving Ligand-Moving Receptor   =  +0.41 kcal/molUSER    (2) Final Total Internal Energy     =  -3.39 kcal/molUSER    (3) Torsional Free Energy           =  +4.47 kcal/molUSER    (4) Unbound System's Energy         =  -3.39 kcal/molUSERUSERREMARK SMILES COc1ccc(O)c(C(=O)c2ccc(S(=O)(=O)N[C@@H]3CCCN(C)C[C@@H]3NC(=O)c3ccnc(Cl)c3)cc2)c1FREMARK SMILES IDX 18 1 15 3 16 4 17 5 14 6 11 7 12 8 38 9 13 10 37 11 9 12REMARK SMILES IDX 10 13 8 14 3 15 4 16 39 17 5 18 6 19 40 20 2 21 1 22 7 23REMARK SMILES IDX 19 25 20 26 21 27 22 28 23 29 24 30 25 31 26 33 27 35 28 36REMARK SMILES IDX 29 38 30 39 31 40 36 41 32 42 34 43 33 44 35 45REMARK H PARENT 18 2 7 24 27 37REMARK Flexibility Score:   99.900USER                              x       y       z     vdW  Elec       q    TypeUSER                           _______ _______ _______ _____ _____    ______ ____ROOTATOM      1  N   UNL     1      38.387  46.805  16.635 -0.27 +0.08    -0.206 NA ATOM      2  H   UNL     1      37.738  47.589  16.707 +0.08 -0.09    +0.141 HD ENDROOTBRANCH   1   3ATOM      3  S   UNL     1      39.957  47.326  16.321 -0.52 -0.05    +0.240 S  ATOM      4  O   UNL     1      39.877  48.766  16.200 -0.44 +0.08    -0.207 OA ATOM      5  O   UNL     1      40.539  46.504  15.286 -0.41 +0.01    -0.207 OA BRANCH   3   6ATOM      6  C   UNL     1      40.745  46.958  17.867 -0.45 -0.01    +0.082 A  ATOM      7  C   UNL     1      42.045  46.266  20.231 -0.38 +0.00    +0.023 A  ATOM      8  C   UNL     1      42.570  47.275  19.412 -0.50 +0.00    +0.013 A  ATOM      9  C   UNL     1      40.822  45.666  19.904 -0.40 +0.00    +0.013 A  ATOM     10  C   UNL     1      41.921  47.623  18.224 -0.48 -0.00    +0.022 A  ATOM     11  C   UNL     1      40.175  46.004  18.715 -0.44 -0.00    +0.022 A  BRANCH   7  12ATOM     12  C   UNL     1      42.810  45.871  21.437 -0.22 +0.06    +0.199 C  ATOM     13  O   UNL     1      42.966  44.677  21.678 -0.16 -0.08    -0.288 OA BRANCH  12  14ATOM     14  C   UNL     1      43.413  46.860  22.365 -0.24 +0.03    +0.104 A  ATOM     15  C   UNL     1      43.235  48.777  23.866 -0.22 +0.04    +0.155 A  ATOM     16  C   UNL     1      44.612  48.727  24.094 -0.20 +0.01    +0.053 A  ATOM     17  C   UNL     1      42.649  47.834  23.011 -0.24 +0.03    +0.179 A  ATOM     18  C   UNL     1      45.384  47.735  23.484 -0.19 +0.02    +0.051 A  ATOM     19  C   UNL     1      44.785  46.803  22.636 -0.19 +0.07    +0.130 A  ATOM     20  F   UNL     1      41.314  47.862  22.855 -0.02 -0.03    -0.202 F  BRANCH  15  21ATOM     21  O   UNL     1      42.371  49.689  24.408 -0.50 -0.18    -0.494 OA ATOM     22  C   UNL     1      41.517  49.232  25.450 -0.23 +0.04    +0.278 C  ENDBRANCH  15  21BRANCH  19  23ATOM     23  O   UNL     1      45.609  45.849  22.104 -0.37 -0.67    -0.507 OA ATOM     24  H   UNL     1      45.092  45.015  22.028 +0.09 +0.28    +0.293 HD ENDBRANCH  19  23ENDBRANCH  12  14ENDBRANCH   7  12ENDBRANCH   3   6ENDBRANCH   1   3BRANCH   1  25ATOM     25  C   UNL     1      37.900  45.544  16.009 -0.35 -0.03    +0.093 C  BRANCH  25  26ATOM     26  C   UNL     1      37.494  45.821  14.555 -0.45 -0.01    +0.023 C  BRANCH  26  27ATOM     27  C   UNL     1      36.172  45.261  14.035 -0.43 -0.01    +0.017 C  BRANCH  27  28ATOM     28  C   UNL     1      34.906  45.900  14.602 -0.38 -0.07    +0.084 C  BRANCH  28  29ATOM     29  N   UNL     1      34.493  45.455  15.933 -0.13 +0.26    -0.304 NA ATOM     30  C   UNL     1      33.900  44.118  15.940 -0.29 -0.05    +0.105 C  BRANCH  29  31ATOM     31  C   UNL     1      35.484  45.632  16.993 -0.33 -0.07    +0.110 CG0ATOM     32  G   UNL     1      36.824  44.860  16.897 +0.00 +0.00    +0.000 G0 ENDBRANCH  29  31ENDBRANCH  28  29ENDBRANCH  27  28ENDBRANCH  26  27ENDBRANCH  25  26BRANCH  25  33ATOM     33  C   UNL     1      36.824  44.865  16.897 -0.32 -0.04    +0.114 CG0ATOM     34  G   UNL     1      35.484  45.635  16.995 +0.00 +0.00    +0.000 G0 BRANCH  33  35ATOM     35  N   UNL     1      37.339  44.638  18.263 -0.13 +0.07    -0.346 N  ATOM     36  C   UNL     1      36.621  43.873  19.160 -0.24 -0.03    +0.251 C  ATOM     37  H   UNL     1      38.327  44.780  18.417 +0.10 -0.02    +0.164 HD ATOM     38  O   UNL     1      35.581  43.296  18.861 -0.21 +0.05    -0.269 OA BRANCH  36  39ATOM     39  C   UNL     1      37.154  43.764  20.543 -0.37 -0.00    +0.044 A  ATOM     40  C   UNL     1      36.879  42.597  21.265 -0.43 +0.00    +0.034 A  ATOM     41  C   UNL     1      37.828  44.814  21.162 -0.23 +0.00    +0.054 A  ATOM     42  C   UNL     1      37.314  42.517  22.576 -0.36 +0.01    +0.113 A  ATOM     43  C   UNL     1      38.195  44.637  22.483 -0.27 +0.01    +0.129 A  ATOM     44  N   UNL     1      37.973  43.516  23.200 -0.18 -0.02    -0.245 NA ATOM     45  Cl  UNL     1      38.933  45.905  23.369 -0.43 -0.01    -0.062 Cl ENDBRANCH  36  39ENDBRANCH  33  35ENDBRANCH  25  33ENDBRANCH   1  25TORSDOF 9TERENDMDL