MODEL        1USER    Run = 1USERUSER    Estimated Free Energy of Binding    = -11.61 kcal/mol  [=(1)+(2)+(3)-(4)]USERUSER    (1) Final Intermolecular Energy     = -13.40 kcal/molUSER        vdW + Hbond + desolv Energy     = -13.22 kcal/molUSER        Electrostatic Energy            =  -0.18 kcal/molUSER        Moving Ligand-Fixed Receptor    = -13.40 kcal/molUSER        Moving Ligand-Moving Receptor   =  +0.00 kcal/molUSER    (2) Final Total Internal Energy     =  -1.35 kcal/molUSER    (3) Torsional Free Energy           =  +1.79 kcal/molUSER    (4) Unbound System's Energy         =  -1.35 kcal/molUSERUSERREMARK SMILES CN1CCN(c2cc3ncc(-c4ccc(CN5CCC(n6c(O)nc7ccccc76)CC5)c(F)c4)nc3cn2)CC1REMARK SMILES IDX 16 1 15 2 12 3 13 4 35 5 14 6 33 7 34 8 11 9 6 10 7 11 39 12REMARK SMILES IDX 8 13 38 14 9 15 37 16 10 17 36 18 5 19 2 20 3 21 41 22 4 23REMARK SMILES IDX 40 24 1 25 17 26 18 27 32 28 19 29 31 30 20 31 21 32 22 33REMARK SMILES IDX 30 34 24 35 29 36 25 37 28 38 26 39 27 40 23 41REMARK H PARENT 23 42USER                              x       y       z     vdW  Elec       q    TypeUSER                           _______ _______ _______ _____ _____    ______ ____ROOTATOM      1  C   UNL     1      37.895  47.792  13.808 -0.50 -0.05    +0.123 C  ENDROOTBRANCH   1   2ATOM      2  C   UNL     1      37.105  46.803  14.631 -0.43 -0.00    +0.002 A  ATOM      3  C   UNL     1      35.644  44.921  16.184 -0.33 -0.00    +0.005 A  ATOM      4  C   UNL     1      35.827  46.245  16.624 -0.36 -0.01    +0.011 A  ATOM      5  C   UNL     1      36.198  44.568  14.942 -0.33 -0.02    +0.050 A  ATOM      6  C   UNL     1      36.546  47.173  15.859 -0.35 -0.01    +0.009 A  ATOM      7  C   UNL     1      36.918  45.494  14.188 -0.32 -0.05    +0.128 A  ATOM      8  F   UNL     1      37.434  45.105  13.012 -0.12 +0.06    -0.207 F  BRANCH   3   9ATOM      9  C   UNL     1      34.894  43.932  16.977 -0.26 -0.04    +0.089 A  ATOM     10  C   UNL     1      31.435  40.815  18.646 -0.25 -0.01    +0.130 A  ATOM     11  C   UNL     1      32.699  41.182  19.098 -0.25 +0.00    +0.077 A  ATOM     12  N   UNL     1      30.950  41.338  17.504 -0.17 +0.05    -0.237 NA ATOM     13  C   UNL     1      33.467  42.107  18.406 -0.34 -0.02    +0.094 A  ATOM     14  C   UNL     1      31.713  42.239  16.835 -0.18 -0.06    +0.144 A  ATOM     15  N   UNL     1      34.682  42.452  18.875 -0.22 +0.04    -0.252 NA ATOM     16  C   UNL     1      32.967  42.670  17.220 -0.27 -0.04    +0.108 A  ATOM     17  C   UNL     1      35.377  43.361  18.148 -0.24 -0.04    +0.140 A  ATOM     18  N   UNL     1      33.676  43.575  16.500 -0.18 +0.11    -0.243 NA BRANCH  10  19ATOM     19  N   UNL     1      30.685  39.857  19.352 -0.10 -0.02    -0.354 N  ATOM     20  N   UNL     1      29.646  37.231  20.153 -0.18 -0.05    -0.303 NA ATOM     21  C   UNL     1      28.829  38.199  19.390 -0.31 +0.02    +0.105 C  ATOM     22  C   UNL     1      30.633  37.971  20.973 -0.44 +0.01    +0.105 C  ATOM     23  C   UNL     1      29.685  39.151  18.520 -0.31 +0.02    +0.133 C  ATOM     24  C   UNL     1      31.522  38.913  20.127 -0.41 +0.03    +0.133 C  ATOM     25  C   UNL     1      28.800  36.392  20.998 -0.26 -0.02    +0.105 C  ENDBRANCH  10  19ENDBRANCH   3   9ENDBRANCH   1   2BRANCH   1  26ATOM     26  N   UNL     1      39.313  47.888  14.196 -0.25 +0.08    -0.299 NA ATOM     27  C   UNL     1      39.509  48.915  15.232 -0.49 -0.04    +0.087 C  ATOM     28  C   UNL     1      39.917  46.594  14.541 -0.35 -0.01    +0.087 C  ATOM     29  C   UNL     1      40.288  48.444  16.462 -0.55 -0.01    +0.041 C  ATOM     30  C   UNL     1      39.517  46.074  15.921 -0.40 -0.01    +0.041 C  ATOM     31  C   UNL     1      39.659  47.156  17.006 -0.46 -0.02    +0.095 C  BRANCH  31  32ATOM     32  N   UNL     1      40.330  46.677  18.205 -0.28 +0.03    -0.291 N  ATOM     33  C   UNL     1      41.594  47.001  18.614 -0.30 -0.00    +0.295 A  ATOM     34  C   UNL     1      39.815  45.813  19.149 -0.38 -0.00    +0.072 A  ATOM     35  N   UNL     1      41.943  46.421  19.729 -0.32 -0.03    -0.195 NA ATOM     36  C   UNL     1      38.584  45.154  19.286 -0.36 -0.00    +0.029 A  ATOM     37  C   UNL     1      40.845  45.674  20.081 -0.33 +0.01    +0.092 A  ATOM     38  C   UNL     1      38.419  44.334  20.407 -0.36 -0.00    +0.002 A  ATOM     39  C   UNL     1      40.658  44.843  21.197 -0.30 +0.00    +0.031 A  ATOM     40  C   UNL     1      39.437  44.178  21.349 -0.29 +0.00    +0.002 A  BRANCH  33  41ATOM     41  O   UNL     1      42.406  47.812  17.969 -0.29 +0.02    -0.480 OA ATOM     42  H   UNL     1      43.050  47.180  17.599 -0.38 -0.10    +0.296 HD ENDBRANCH  33  41ENDBRANCH  31  32ENDBRANCH   1  26TORSDOF 6TERENDMDL