REMARK SMILES OCN1CCN(c2cc3ncc(-c4ccc(CN5CCC(n6c(O)nc7ncccc76)CC5)c(F)c4)nc3cn2)CC1
REMARK SMILES IDX 13 1 14 2 15 3 16 4 34 5 35 6 36 7 12 8 7 9 8 10 40 11 9 12
REMARK SMILES IDX 39 13 10 14 38 15 11 16 37 17 6 18 3 19 4 20 42 21 5 22
REMARK SMILES IDX 41 23 2 24 1 25 17 27 18 28 19 29 33 30 20 31 32 32 21 33
REMARK SMILES IDX 22 34 23 35 31 36 25 37 30 38 26 39 29 40 27 41 28 42 24 43
REMARK H PARENT 1 26 24 44
ROOT
ATOM      1  C   UNL     1       0.357  -1.342  -0.266  1.00  0.00     0.005 A 
ATOM      2  C   UNL     1      -0.342  -0.726   0.791  1.00  0.00     0.011 A 
ATOM      3  C   UNL     1      -1.683  -1.028   1.065  1.00  0.00     0.009 A 
ATOM      4  C   UNL     1      -2.371  -1.962   0.285  1.00  0.00     0.002 A 
ATOM      5  C   UNL     1      -1.677  -2.596  -0.746  1.00  0.00     0.128 A 
ATOM      6  F   UNL     1      -2.290  -3.522  -1.497  1.00  0.00    -0.207 F 
ATOM      7  C   UNL     1      -0.341  -2.300  -1.019  1.00  0.00     0.050 A 
ENDROOT
BRANCH   1   8
ATOM      8  C   UNL     1       1.756  -0.972  -0.557  1.00  0.00     0.089 A 
ATOM      9  C   UNL     1       6.389   0.728  -0.199  1.00  0.00     0.130 A 
ATOM     10  C   UNL     1       5.631   0.222  -1.250  1.00  0.00     0.077 A 
ATOM     11  N   UNL     1       5.861   0.820   1.036  1.00  0.00    -0.237 NA
ATOM     12  C   UNL     1       4.326  -0.202  -1.048  1.00  0.00     0.094 A 
ATOM     13  C   UNL     1       4.583   0.399   1.216  1.00  0.00     0.144 A 
ATOM     14  N   UNL     1       3.610  -0.678  -2.084  1.00  0.00    -0.252 NA
ATOM     15  C   UNL     1       3.762  -0.116   0.234  1.00  0.00     0.108 A 
ATOM     16  C   UNL     1       2.332  -1.051  -1.820  1.00  0.00     0.140 A 
ATOM     17  N   UNL     1       2.485  -0.499   0.485  1.00  0.00    -0.243 NA
BRANCH   9  18
ATOM     18  N   UNL     1       7.692   1.196  -0.437  1.00  0.00    -0.354 N 
ATOM     19  N   UNL     1      10.630   1.550  -0.184  1.00  0.00    -0.278 NA
ATOM     20  C   UNL     1       9.642   2.542   0.311  1.00  0.00     0.108 C 
ATOM     21  C   UNL     1       9.993   0.780  -1.279  1.00  0.00     0.108 C 
ATOM     22  C   UNL     1       8.255   1.969   0.692  1.00  0.00     0.133 C 
ATOM     23  C   UNL     1       8.611   0.161  -0.948  1.00  0.00     0.133 C 
BRANCH  19  24
ATOM     24  C   UNL     1      11.082   0.665   0.875  1.00  0.00     0.243 C 
BRANCH  24  25
ATOM     25  O   UNL     1      11.849   1.412   1.793  1.00  0.00    -0.381 OA
ATOM     26  H   UNL     1      12.296   2.065   1.226  1.00  0.00     0.212 HD
ENDBRANCH  24  25
ENDBRANCH  19  24
ENDBRANCH   9  18
ENDBRANCH   1   8
BRANCH   4  27
ATOM     27  C   UNL     1      -3.829  -2.265   0.533  1.00  0.00     0.123 C 
BRANCH  27  28
ATOM     28  N   UNL     1      -4.730  -1.593  -0.420  1.00  0.00    -0.299 NA
ATOM     29  C   UNL     1      -4.788  -0.137  -0.283  1.00  0.00     0.087 C 
ATOM     30  C   UNL     1      -6.075  -2.174  -0.412  1.00  0.00     0.087 C 
ATOM     31  C   UNL     1      -5.512   0.349   0.968  1.00  0.00     0.041 C 
ATOM     32  C   UNL     1      -6.896  -1.836   0.828  1.00  0.00     0.041 C 
ATOM     33  C   UNL     1      -6.846  -0.358   1.246  1.00  0.00     0.095 C 
BRANCH  33  34
ATOM     34  N   UNL     1      -8.027   0.417   0.870  1.00  0.00    -0.289 N 
ATOM     35  C   UNL     1      -8.918   0.924   1.789  1.00  0.00     0.296 A 
ATOM     36  C   UNL     1      -8.491   0.801  -0.368  1.00  0.00     0.091 A 
ATOM     37  N   UNL     1      -9.900   1.594   1.258  1.00  0.00    -0.175 NA
ATOM     38  C   UNL     1      -8.088   0.628  -1.693  1.00  0.00     0.032 A 
ATOM     39  C   UNL     1      -9.651   1.532  -0.081  1.00  0.00     0.181 A 
ATOM     40  C   UNL     1      -8.890   1.218  -2.668  1.00  0.00     0.022 A 
ATOM     41  N   UNL     1     -10.435   2.106  -1.020  1.00  0.00    -0.235 NA
ATOM     42  C   UNL     1     -10.020   1.926  -2.287  1.00  0.00     0.114 A 
BRANCH  35  43
ATOM     43  O   UNL     1      -8.822   0.769   3.095  1.00  0.00    -0.480 OA
ATOM     44  H   UNL     1      -9.620   1.239   3.403  1.00  0.00     0.296 HD
ENDBRANCH  35  43
ENDBRANCH  33  34
ENDBRANCH  27  28
ENDBRANCH   4  27
TORSDOF 8
