MODEL        3USER    Run = 3USERUSER    Estimated Free Energy of Binding    = -12.63 kcal/mol  [=(1)+(2)+(3)-(4)]USERUSER    (1) Final Intermolecular Energy     = -15.32 kcal/molUSER        vdW + Hbond + desolv Energy     = -15.29 kcal/molUSER        Electrostatic Energy            =  -0.03 kcal/molUSER        Moving Ligand-Fixed Receptor    = -15.32 kcal/molUSER        Moving Ligand-Moving Receptor   =  +0.00 kcal/molUSER    (2) Final Total Internal Energy     =  -2.24 kcal/molUSER    (3) Torsional Free Energy           =  +2.68 kcal/molUSER    (4) Unbound System's Energy         =  -2.24 kcal/molUSERUSERREMARK SMILES CC(=O)c1cnc(-c2ccc(CNCc3ccc(-c4cnn(C)c4)cc3)cc2)c(-c2ccc(N3CCC3)cc2)c1REMARK SMILES IDX 12 1 11 2 8 3 9 4 28 5 10 6 27 7 7 8 4 9 5 10 40 11 6 12REMARK SMILES IDX 29 13 2 14 1 15 3 16 30 17 31 18 39 19 32 20 38 21 33 22REMARK SMILES IDX 34 23 35 24 37 25 36 26 13 27 14 29 15 30 16 31 26 32 17 33REMARK SMILES IDX 25 34 18 35 19 36 20 37 24 38 21 39 22 40 23 41REMARK H PARENT 13 28USER                              x       y       z     vdW  Elec       q    TypeUSER                           _______ _______ _______ _____ _____    ______ ____ROOTATOM      1  C   UNL     1      42.512  46.207  20.875 -0.32 +0.03    +0.117 C  ENDROOTBRANCH   1   2ATOM      2  C   UNL     1      41.498  45.504  21.746 -0.26 -0.00    -0.034 A  ATOM      3  C   UNL     1      39.569  44.182  23.359 -0.22 +0.00    +0.001 A  ATOM      4  C   UNL     1      39.724  45.580  23.402 -0.23 +0.00    +0.011 A  ATOM      5  C   UNL     1      40.412  43.462  22.497 -0.27 +0.00    +0.011 A  ATOM      6  C   UNL     1      40.667  46.234  22.604 -0.24 +0.00    +0.006 A  ATOM      7  C   UNL     1      41.355  44.113  21.694 -0.30 +0.00    +0.006 A  BRANCH   3   8ATOM      8  C   UNL     1      38.565  43.519  24.216 -0.21 +0.00    +0.078 A  ATOM      9  C   UNL     1      36.889  42.305  26.061 -0.38 -0.00    +0.036 A  ATOM     10  C   UNL     1      38.073  42.922  26.421 -0.20 -0.01    +0.123 A  ATOM     11  C   UNL     1      36.543  42.317  24.708 -0.39 -0.00    +0.024 A  ATOM     12  N   UNL     1      38.903  43.525  25.540 -0.08 +0.00    -0.255 NA ATOM     13  C   UNL     1      37.373  42.930  23.748 -0.37 +0.00    +0.009 A  BRANCH   9  14ATOM     14  C   UNL     1      35.992  41.651  27.049 -0.50 -0.05    +0.161 C  ATOM     15  C   UNL     1      34.692  42.320  27.413 -0.57 -0.02    +0.093 C  ATOM     16  O   UNL     1      36.323  40.581  27.554 -0.43 +0.11    -0.294 OA ENDBRANCH   9  14BRANCH  13  17ATOM     17  C   UNL     1      36.935  42.948  22.341 -0.42 -0.00    -0.016 A  ATOM     18  C   UNL     1      37.005  44.125  21.580 -0.37 +0.00    +0.011 A  ATOM     19  C   UNL     1      36.457  41.791  21.710 -0.55 +0.00    +0.011 A  ATOM     20  C   UNL     1      36.597  44.145  20.242 -0.37 -0.00    +0.026 A  ATOM     21  C   UNL     1      36.045  41.816  20.372 -0.40 -0.00    +0.026 A  ATOM     22  C   UNL     1      36.100  42.995  19.621 -0.37 -0.00    +0.037 A  BRANCH  22  23ATOM     23  N   UNL     1      35.695  43.015  18.271 -0.10 +0.08    -0.371 N  ATOM     24  C   UNL     1      34.622  42.264  17.680 -0.39 -0.04    +0.118 C  ATOM     25  C   UNL     1      35.420  44.171  17.466 -0.28 -0.04    +0.118 C  ATOM     26  C   UNL     1      34.730  43.218  16.486 -0.43 -0.02    +0.043 C  ENDBRANCH  22  23ENDBRANCH  13  17ENDBRANCH   3   8ENDBRANCH   1   2BRANCH   1  27ATOM     27  N   UNL     1      42.146  46.089  19.466 -0.21 -0.06    -0.309 NA ATOM     28  H   UNL     1      41.253  45.605  19.399 +0.07 +0.01    +0.123 HD BRANCH  27  29ATOM     29  C   UNL     1      42.052  47.385  18.797 -0.50 +0.00    +0.117 C  BRANCH  29  30ATOM     30  C   UNL     1      41.037  47.417  17.678 -0.50 +0.00    -0.034 A  ATOM     31  C   UNL     1      41.098  48.406  16.688 -0.53 -0.00    +0.006 A  ATOM     32  C   UNL     1      40.030  46.446  17.600 -0.48 -0.00    +0.006 A  ATOM     33  C   UNL     1      40.172  48.422  15.640 -0.57 -0.00    +0.009 A  ATOM     34  C   UNL     1      39.104  46.465  16.552 -0.43 -0.00    +0.009 A  ATOM     35  C   UNL     1      39.164  47.451  15.560 -0.48 +0.01    -0.015 A  BRANCH  35  36ATOM     36  C   UNL     1      38.216  47.473  14.458 -0.48 -0.01    +0.020 A  ATOM     37  C   UNL     1      37.552  48.554  13.830 -0.39 -0.07    +0.143 A  ATOM     38  C   UNL     1      37.745  46.362  13.787 -0.36 -0.04    +0.117 A  ATOM     39  N   UNL     1      36.737  48.161  12.848 -0.92 +0.07    -0.181 NA ATOM     40  N   UNL     1      36.874  46.824  12.843 -0.36 +0.11    -0.275 N  ATOM     41  C   UNL     1      36.122  46.037  11.896 -0.49 -0.08    +0.173 C  ENDBRANCH  35  36ENDBRANCH  29  30ENDBRANCH  27  29ENDBRANCH   1  27TORSDOF 9TERENDMDL