MODEL        8USER    Run = 8USERUSER    Estimated Free Energy of Binding    = -11.35 kcal/mol  [=(1)+(2)+(3)-(4)]USERUSER    (1) Final Intermolecular Energy     = -13.14 kcal/molUSER        vdW + Hbond + desolv Energy     = -12.96 kcal/molUSER        Electrostatic Energy            =  -0.18 kcal/molUSER        Moving Ligand-Fixed Receptor    = -13.14 kcal/molUSER        Moving Ligand-Moving Receptor   =  +0.00 kcal/molUSER    (2) Final Total Internal Energy     =  -1.48 kcal/molUSER    (3) Torsional Free Energy           =  +1.79 kcal/molUSER    (4) Unbound System's Energy         =  -1.48 kcal/molUSERUSERREMARK SMILES CC(=O)Nc1cc2ncc(-c3ccc(CN4CCC(n5c(O)nc6ccccc65)CC4)c(F)c3)nc2cn1REMARK SMILES IDX 15 1 14 2 11 3 12 4 34 5 13 6 32 7 33 8 10 9 5 10 6 11 38 12REMARK SMILES IDX 7 13 37 14 8 15 36 16 9 17 35 18 4 19 2 20 1 21 3 22 16 24REMARK SMILES IDX 17 25 31 26 18 27 30 28 19 29 20 30 21 31 29 32 23 33 28 34REMARK SMILES IDX 24 35 27 36 25 37 26 38 22 39REMARK H PARENT 4 23 22 40USER                              x       y       z     vdW  Elec       q    TypeUSER                           _______ _______ _______ _____ _____    ______ ____ROOTATOM      1  C   UNL     1      35.049  42.185  19.686 -0.37 -0.00    +0.123 C  ENDROOTBRANCH   1   2ATOM      2  C   UNL     1      35.803  43.204  18.867 -0.36 -0.00    +0.002 A  ATOM      3  C   UNL     1      37.239  45.091  17.289 -0.35 -0.00    +0.005 A  ATOM      4  C   UNL     1      37.227  45.169  18.696 -0.27 -0.00    +0.011 A  ATOM      5  C   UNL     1      36.516  44.042  16.697 -0.32 -0.02    +0.050 A  ATOM      6  C   UNL     1      36.520  44.242  19.474 -0.38 -0.00    +0.009 A  ATOM      7  C   UNL     1      35.813  43.123  17.474 -0.24 -0.04    +0.128 A  ATOM      8  F   UNL     1      35.161  42.128  16.854 -0.15 +0.09    -0.207 F  BRANCH   3   9ATOM      9  C   UNL     1      37.999  46.040  16.455 -0.32 -0.03    +0.089 A  ATOM     10  C   UNL     1      41.225  49.420  14.906 -0.53 -0.03    +0.134 A  ATOM     11  C   UNL     1      40.167  48.782  14.283 -0.34 -0.02    +0.077 A  ATOM     12  N   UNL     1      41.565  49.165  16.182 -0.93 -0.01    -0.237 NA ATOM     13  C   UNL     1      39.420  47.846  14.985 -0.45 -0.03    +0.094 A  ATOM     14  C   UNL     1      40.821  48.247  16.848 -0.39 -0.02    +0.144 A  ATOM     15  N   UNL     1      38.388  47.224  14.383 -0.27 +0.09    -0.252 NA ATOM     16  C   UNL     1      39.746  47.556  16.323 -0.42 -0.03    +0.108 A  ATOM     17  C   UNL     1      37.695  46.328  15.130 -0.29 -0.06    +0.140 A  ATOM     18  N   UNL     1      39.048  46.656  17.056 -0.27 +0.07    -0.243 NA BRANCH  10  19ATOM     19  N   UNL     1      42.038  50.381  14.306 -0.43 +0.07    -0.311 N  ATOM     20  C   UNL     1      42.881  50.236  13.232 -0.51 -0.07    +0.222 C  ATOM     21  C   UNL     1      43.580  51.522  12.865 -0.35 -0.05    +0.114 C  ATOM     22  O   UNL     1      43.071  49.211  12.589 -0.52 +0.06    -0.275 OA ATOM     23  H   UNL     1      41.961  51.283  14.758 +0.03 -0.04    +0.171 HD ENDBRANCH  10  19ENDBRANCH   3   9ENDBRANCH   1   2BRANCH   1  24ATOM     24  N   UNL     1      33.595  42.227  19.468 -0.43 -0.01    -0.299 NA ATOM     25  C   UNL     1      33.138  41.329  18.400 -0.38 -0.01    +0.087 C  ATOM     26  C   UNL     1      33.126  43.608  19.335 -0.43 -0.01    +0.087 C  ATOM     27  C   UNL     1      32.296  42.003  17.318 -0.34 -0.02    +0.041 C  ATOM     28  C   UNL     1      31.612  43.648  19.149 -0.27 -0.00    +0.041 C  ATOM     29  C   UNL     1      31.162  42.838  17.923 -0.27 -0.02    +0.095 C  BRANCH  29  30ATOM     30  N   UNL     1      30.511  43.666  16.913 -0.11 +0.07    -0.291 N  ATOM     31  C   UNL     1      29.166  43.770  16.689 -0.07 -0.08    +0.295 A  ATOM     32  C   UNL     1      31.132  44.486  15.992 -0.29 -0.03    +0.072 A  ATOM     33  N   UNL     1      28.860  44.598  15.728 -0.20 +0.10    -0.195 NA ATOM     34  C   UNL     1      32.474  44.783  15.706 -0.33 -0.02    +0.029 A  ATOM     35  C   UNL     1      30.075  45.055  15.276 -0.31 -0.05    +0.092 A  ATOM     36  C   UNL     1      32.724  45.688  14.667 -0.25 -0.00    +0.002 A  ATOM     37  C   UNL     1      30.348  45.963  14.242 -0.50 -0.02    +0.031 A  ATOM     38  C   UNL     1      31.681  46.271  13.945 -0.50 -0.00    +0.002 A  BRANCH  31  39ATOM     39  O   UNL     1      28.238  43.108  17.348 -0.01 +0.09    -0.480 OA ATOM     40  H   UNL     1      27.801  42.624  16.622 +0.18 -0.09    +0.296 HD ENDBRANCH  31  39ENDBRANCH  29  30ENDBRANCH   1  24TORSDOF 6TERENDMDL