REMARK SMILES CC(=O)Nc1cc2ncc(-c3ccc(CN4CCC(n5c(O)nc6ccccc65)CC4)c(F)c3)nc2cn1
REMARK SMILES IDX 15 1 14 2 11 3 12 4 34 5 13 6 32 7 33 8 10 9 5 10 6 11 38 12
REMARK SMILES IDX 7 13 37 14 8 15 36 16 9 17 35 18 4 19 2 20 1 21 3 22 16 24
REMARK SMILES IDX 17 25 31 26 18 27 30 28 19 29 20 30 21 31 29 32 23 33 28 34
REMARK SMILES IDX 24 35 27 36 25 37 26 38 22 39
REMARK H PARENT 4 23 22 40
ROOT
ATOM      1  C   UNL     1      -1.468   2.159   0.632  1.00  0.00     0.123 C 
ENDROOT
BRANCH   1   2
ATOM      2  C   UNL     1      -0.066   1.665   0.371  1.00  0.00     0.002 A 
ATOM      3  C   UNL     1       2.593   0.748  -0.079  1.00  0.00     0.005 A 
ATOM      4  C   UNL     1       1.822   1.301  -1.120  1.00  0.00     0.011 A 
ATOM      5  C   UNL     1       1.997   0.670   1.191  1.00  0.00     0.050 A 
ATOM      6  C   UNL     1       0.513   1.752  -0.901  1.00  0.00     0.009 A 
ATOM      7  C   UNL     1       0.695   1.118   1.405  1.00  0.00     0.128 A 
ATOM      8  F   UNL     1       0.187   1.040   2.644  1.00  0.00    -0.207 F 
BRANCH   3   9
ATOM      9  C   UNL     1       3.981   0.294  -0.283  1.00  0.00     0.089 A 
ATOM     10  C   UNL     1       8.759  -0.698   0.361  1.00  0.00     0.134 A 
ATOM     11  C   UNL     1       7.910  -0.849  -0.721  1.00  0.00     0.077 A 
ATOM     12  N   UNL     1       8.339  -0.203   1.539  1.00  0.00    -0.237 NA
ATOM     13  C   UNL     1       6.577  -0.480  -0.604  1.00  0.00     0.094 A 
ATOM     14  C   UNL     1       7.032   0.150   1.629  1.00  0.00     0.144 A 
ATOM     15  N   UNL     1       5.747  -0.624  -1.655  1.00  0.00    -0.252 NA
ATOM     16  C   UNL     1       6.103   0.043   0.613  1.00  0.00     0.108 A 
ATOM     17  C   UNL     1       4.460  -0.235  -1.475  1.00  0.00     0.140 A 
ATOM     18  N   UNL     1       4.814   0.424   0.780  1.00  0.00    -0.243 NA
BRANCH  10  19
ATOM     19  N   UNL     1      10.115  -1.025   0.359  1.00  0.00    -0.311 N 
ATOM     20  C   UNL     1      10.865  -1.551  -0.664  1.00  0.00     0.222 C 
ATOM     21  C   UNL     1      12.311  -1.747  -0.282  1.00  0.00     0.114 C 
ATOM     22  O   UNL     1      10.467  -1.831  -1.788  1.00  0.00    -0.275 OA
ATOM     23  H   UNL     1      10.556  -0.831   1.248  1.00  0.00     0.171 HD
ENDBRANCH  10  19
ENDBRANCH   3   9
ENDBRANCH   1   2
BRANCH   1  24
ATOM     24  N   UNL     1      -2.461   1.076   0.701  1.00  0.00    -0.299 NA
ATOM     25  C   UNL     1      -2.750   0.464  -0.602  1.00  0.00     0.087 C 
ATOM     26  C   UNL     1      -3.649   1.503   1.443  1.00  0.00     0.087 C 
ATOM     27  C   UNL     1      -4.232   0.425  -0.972  1.00  0.00     0.041 C 
ATOM     28  C   UNL     1      -4.658   0.363   1.546  1.00  0.00     0.041 C 
ATOM     29  C   UNL     1      -5.082  -0.157   0.164  1.00  0.00     0.095 C 
BRANCH  29  30
ATOM     30  N   UNL     1      -6.508   0.025  -0.090  1.00  0.00    -0.291 N 
ATOM     31  C   UNL     1      -7.179   1.216  -0.142  1.00  0.00     0.295 A 
ATOM     32  C   UNL     1      -7.441  -0.968  -0.312  1.00  0.00     0.072 A 
ATOM     33  N   UNL     1      -8.451   1.085  -0.402  1.00  0.00    -0.195 NA
ATOM     34  C   UNL     1      -7.375  -2.369  -0.356  1.00  0.00     0.029 A 
ATOM     35  C   UNL     1      -8.637  -0.272  -0.509  1.00  0.00     0.092 A 
ATOM     36  C   UNL     1      -8.566  -3.060  -0.613  1.00  0.00     0.002 A 
ATOM     37  C   UNL     1      -9.817  -0.984  -0.770  1.00  0.00     0.031 A 
ATOM     38  C   UNL     1      -9.769  -2.383  -0.818  1.00  0.00     0.002 A 
BRANCH  31  39
ATOM     39  O   UNL     1      -6.635   2.398   0.056  1.00  0.00    -0.480 OA
ATOM     40  H   UNL     1      -7.410   2.982  -0.050  1.00  0.00     0.296 HD
ENDBRANCH  31  39
ENDBRANCH  29  30
ENDBRANCH   1  24
TORSDOF 6
