REMARK SMILES CN1CCN(c2cc3ncc(-c4ccc(CN5CCC(n6c(O)nc7ccccc76)CC5)c(F)c4)nc3cn2)CC1
REMARK SMILES IDX 16 1 15 2 12 3 13 4 35 5 14 6 33 7 34 8 11 9 6 10 7 11 39 12
REMARK SMILES IDX 8 13 38 14 9 15 37 16 10 17 36 18 5 19 2 20 3 21 41 22 4 23
REMARK SMILES IDX 40 24 1 25 17 26 18 27 32 28 19 29 31 30 20 31 21 32 22 33
REMARK SMILES IDX 30 34 24 35 29 36 25 37 28 38 26 39 27 40 23 41
REMARK H PARENT 23 42
ROOT
ATOM      1  C   UNL     1      -3.647   1.698  -1.574  1.00  0.00     0.123 C 
ENDROOT
BRANCH   1   2
ATOM      2  C   UNL     1      -2.147   1.574  -1.456  1.00  0.00     0.002 A 
ATOM      3  C   UNL     1       0.680   1.331  -1.265  1.00  0.00     0.005 A 
ATOM      4  C   UNL     1       0.037   2.563  -1.047  1.00  0.00     0.011 A 
ATOM      5  C   UNL     1      -0.129   0.222  -1.567  1.00  0.00     0.050 A 
ATOM      6  C   UNL     1      -1.356   2.684  -1.140  1.00  0.00     0.009 A 
ATOM      7  C   UNL     1      -1.514   0.349  -1.665  1.00  0.00     0.128 A 
ATOM      8  F   UNL     1      -2.241  -0.738  -1.963  1.00  0.00    -0.207 F 
BRANCH   3   9
ATOM      9  C   UNL     1       2.143   1.187  -1.175  1.00  0.00     0.089 A 
ATOM     10  C   UNL     1       6.707  -0.522  -0.331  1.00  0.00     0.130 A 
ATOM     11  C   UNL     1       6.206   0.661  -0.867  1.00  0.00     0.077 A 
ATOM     12  N   UNL     1       5.864  -1.498   0.055  1.00  0.00    -0.237 NA
ATOM     13  C   UNL     1       4.840   0.871  -0.985  1.00  0.00     0.094 A 
ATOM     14  C   UNL     1       4.530  -1.280  -0.070  1.00  0.00     0.144 A 
ATOM     15  N   UNL     1       4.384   2.031  -1.496  1.00  0.00    -0.252 NA
ATOM     16  C   UNL     1       3.949  -0.134  -0.574  1.00  0.00     0.108 A 
ATOM     17  C   UNL     1       3.038   2.168  -1.583  1.00  0.00     0.140 A 
ATOM     18  N   UNL     1       2.604   0.015  -0.672  1.00  0.00    -0.243 NA
BRANCH  10  19
ATOM     19  N   UNL     1       8.097  -0.721  -0.243  1.00  0.00    -0.354 N 
ATOM     20  N   UNL     1      10.720  -1.278   0.953  1.00  0.00    -0.303 NA
ATOM     21  C   UNL     1      10.327   0.080   0.521  1.00  0.00     0.105 C 
ATOM     22  C   UNL     1      10.004  -2.275   0.125  1.00  0.00     0.105 C 
ATOM     23  C   UNL     1       8.796   0.304   0.565  1.00  0.00     0.133 C 
ATOM     24  C   UNL     1       8.468  -2.094   0.169  1.00  0.00     0.133 C 
ATOM     25  C   UNL     1      12.165  -1.459   0.843  1.00  0.00     0.105 C 
ENDBRANCH  10  19
ENDBRANCH   3   9
ENDBRANCH   1   2
BRANCH   1  26
ATOM     26  N   UNL     1      -4.310   2.097  -0.320  1.00  0.00    -0.299 NA
ATOM     27  C   UNL     1      -5.696   2.528  -0.568  1.00  0.00     0.087 C 
ATOM     28  C   UNL     1      -4.198   1.095   0.749  1.00  0.00     0.087 C 
ATOM     29  C   UNL     1      -6.745   1.852   0.317  1.00  0.00     0.041 C 
ATOM     30  C   UNL     1      -5.129  -0.104   0.572  1.00  0.00     0.041 C 
ATOM     31  C   UNL     1      -6.570   0.331   0.252  1.00  0.00     0.095 C 
BRANCH  31  32
ATOM     32  N   UNL     1      -7.568  -0.375   1.042  1.00  0.00    -0.291 N 
ATOM     33  C   UNL     1      -7.704  -0.336   2.402  1.00  0.00     0.295 A 
ATOM     34  C   UNL     1      -8.559  -1.207   0.565  1.00  0.00     0.072 A 
ATOM     35  N   UNL     1      -8.686  -1.072   2.846  1.00  0.00    -0.195 NA
ATOM     36  C   UNL     1      -8.931  -1.629  -0.720  1.00  0.00     0.029 A 
ATOM     37  C   UNL     1      -9.234  -1.625   1.714  1.00  0.00     0.092 A 
ATOM     38  C   UNL     1     -10.020  -2.502  -0.816  1.00  0.00     0.002 A 
ATOM     39  C   UNL     1     -10.322  -2.503   1.594  1.00  0.00     0.031 A 
ATOM     40  C   UNL     1     -10.707  -2.935   0.320  1.00  0.00     0.002 A 
BRANCH  33  41
ATOM     41  O   UNL     1      -6.936   0.361   3.213  1.00  0.00    -0.480 OA
ATOM     42  H   UNL     1      -7.326   0.140   4.079  1.00  0.00     0.296 HD
ENDBRANCH  33  41
ENDBRANCH  31  32
ENDBRANCH   1  26
TORSDOF 6
