MODEL        6USER    Run = 6USERUSER    Estimated Free Energy of Binding    = -10.80 kcal/mol  [=(1)+(2)+(3)-(4)]USERUSER    (1) Final Intermolecular Energy     = -13.19 kcal/molUSER        vdW + Hbond + desolv Energy     = -12.93 kcal/molUSER        Electrostatic Energy            =  -0.26 kcal/molUSER        Moving Ligand-Fixed Receptor    = -13.19 kcal/molUSER        Moving Ligand-Moving Receptor   =  +0.00 kcal/molUSER    (2) Final Total Internal Energy     =  -1.10 kcal/molUSER    (3) Torsional Free Energy           =  +2.39 kcal/molUSER    (4) Unbound System's Energy         =  -1.10 kcal/molUSERUSERREMARK SMILES OCN1CCN(c2cc3ncc(-c4ccc(CN5CCC(n6c(O)nc7ncccc76)CC5)c(F)c4)nc3cn2)CC1REMARK SMILES IDX 13 1 14 2 15 3 16 4 34 5 35 6 36 7 12 8 7 9 8 10 40 11 9 12REMARK SMILES IDX 39 13 10 14 38 15 11 16 37 17 6 18 3 19 4 20 42 21 5 22REMARK SMILES IDX 41 23 2 24 1 25 17 27 18 28 19 29 33 30 20 31 32 32 21 33REMARK SMILES IDX 22 34 23 35 31 36 25 37 30 38 26 39 29 40 27 41 28 42 24 43REMARK H PARENT 1 26 24 44USER                              x       y       z     vdW  Elec       q    TypeUSER                           _______ _______ _______ _____ _____    ______ ____ROOTATOM      1  C   UNL     1      38.950  43.849  22.132 -0.29 +0.00    +0.005 A  ATOM      2  C   UNL     1      40.108  44.309  22.790 -0.22 +0.00    +0.011 A  ATOM      3  C   UNL     1      40.431  43.898  24.090 -0.17 +0.00    +0.009 A  ATOM      4  C   UNL     1      39.600  43.009  24.778 -0.20 +0.00    +0.002 A  ATOM      5  C   UNL     1      38.466  42.528  24.122 -0.15 +0.01    +0.128 A  ATOM      6  F   UNL     1      37.660  41.648  24.733 -0.05 -0.01    -0.207 F  ATOM      7  C   UNL     1      38.144  42.932  22.826 -0.32 +0.00    +0.050 A  ENDROOTBRANCH   1   8ATOM      8  C   UNL     1      38.614  44.332  20.778 -0.29 +0.00    +0.089 A  ATOM      9  C   UNL     1      38.699  46.655  16.410 -0.33 -0.04    +0.130 A  ATOM     10  C   UNL     1      37.759  45.857  17.054 -0.33 -0.03    +0.077 A  ATOM     11  N   UNL     1      39.881  46.920  16.997 -0.31 +0.05    -0.237 NA ATOM     12  C   UNL     1      38.021  45.316  18.304 -0.32 -0.02    +0.094 A  ATOM     13  C   UNL     1      40.121  46.381  18.220 -0.36 -0.01    +0.144 A  ATOM     14  N   UNL     1      37.090  44.555  18.911 -0.20 +0.04    -0.252 NA ATOM     15  C   UNL     1      39.249  45.580  18.928 -0.34 -0.01    +0.108 A  ATOM     16  C   UNL     1      37.403  44.080  20.143 -0.28 -0.01    +0.140 A  ATOM     17  N   UNL     1      39.551  45.092  20.158 -0.23 -0.00    -0.243 NA BRANCH   9  18ATOM     18  N   UNL     1      38.394  47.231  15.166 -0.17 +0.15    -0.354 N  ATOM     19  N   UNL     1      36.908  47.918  12.687 -0.94 +0.09    -0.278 NA ATOM     20  C   UNL     1      38.042  46.960  12.721 -0.26 -0.02    +0.108 C  ATOM     21  C   UNL     1      37.067  48.852  13.828 -0.47 -0.06    +0.108 C  ATOM     22  C   UNL     1      38.268  46.241  14.073 -0.38 -0.04    +0.133 C  ATOM     23  C   UNL     1      37.272  48.188  15.214 -0.45 -0.11    +0.133 C  BRANCH  19  24ATOM     24  C   UNL     1      35.627  47.239  12.749 -0.38 -0.15    +0.243 C  BRANCH  24  25ATOM     25  O   UNL     1      35.622  46.192  11.804 -0.38 +0.21    -0.381 OA ATOM     26  H   UNL     1      34.682  46.116  11.564 -0.23 -0.18    +0.212 HD ENDBRANCH  24  25ENDBRANCH  19  24ENDBRANCH   9  18ENDBRANCH   1   8BRANCH   4  27ATOM     27  C   UNL     1      39.904  42.593  26.197 -0.18 -0.00    +0.123 C  BRANCH  27  28ATOM     28  N   UNL     1      39.644  43.659  27.181 -0.07 +0.01    -0.299 NA ATOM     29  C   UNL     1      38.869  43.237  28.348 -0.27 -0.00    +0.087 C  ATOM     30  C   UNL     1      39.054  44.849  26.562 -0.18 -0.00    +0.087 C  ATOM     31  C   UNL     1      37.400  42.947  28.057 -0.28 -0.01    +0.041 C  ATOM     32  C   UNL     1      37.598  44.680  26.142 -0.32 -0.00    +0.041 C  ATOM     33  C   UNL     1      36.702  44.007  27.194 -0.39 -0.02    +0.095 C  BRANCH  33  34ATOM     34  N   UNL     1      35.853  44.930  27.945 -0.26 +0.08    -0.289 N  ATOM     35  C   UNL     1      34.705  44.536  28.595 -0.35 -0.08    +0.296 A  ATOM     36  C   UNL     1      35.979  46.282  28.173 -0.13 -0.03    +0.091 A  ATOM     37  N   UNL     1      34.092  45.503  29.216 -0.58 +0.03    -0.175 NA ATOM     38  C   UNL     1      36.882  47.284  27.813 -0.28 -0.01    +0.032 A  ATOM     39  C   UNL     1      34.870  46.595  28.968 -0.25 -0.04    +0.181 A  ATOM     40  C   UNL     1      36.610  48.565  28.289 -0.26 -0.00    +0.022 A  ATOM     41  N   UNL     1      34.598  47.834  29.433 -0.29 +0.03    -0.235 NA ATOM     42  C   UNL     1      35.486  48.778  29.074 -0.26 -0.01    +0.114 A  BRANCH  35  43ATOM     43  O   UNL     1      34.236  43.304  28.614 -0.27 +0.13    -0.480 OA ATOM     44  H   UNL     1      34.775  42.904  29.322 -0.29 -0.19    +0.296 HD ENDBRANCH  35  43ENDBRANCH  33  34ENDBRANCH  27  28ENDBRANCH   4  27TORSDOF 8TERENDMDL