REMARK SMILES CC(=O)c1cnc(-c2ccc(CNCc3ccc(-c4cnn(C)c4)cc3)cc2)c(-c2ccc(N3CCC3)cc2)c1
REMARK SMILES IDX 12 1 11 2 8 3 9 4 28 5 10 6 27 7 7 8 4 9 5 10 40 11 6 12
REMARK SMILES IDX 29 13 2 14 1 15 3 16 30 17 31 18 39 19 32 20 38 21 33 22
REMARK SMILES IDX 34 23 35 24 37 25 36 26 13 27 14 29 15 30 16 31 26 32 17 33
REMARK SMILES IDX 25 34 18 35 19 36 20 37 24 38 21 39 22 40 23 41
REMARK H PARENT 13 28
ROOT
ATOM      1  C   UNL     1       1.491  -0.972  -1.810  1.00  0.00     0.117 C 
ENDROOT
BRANCH   1   2
ATOM      2  C   UNL     1       0.377  -1.297  -0.844  1.00  0.00    -0.034 A 
ATOM      3  C   UNL     1      -1.727  -1.877   0.974  1.00  0.00     0.001 A 
ATOM      4  C   UNL     1      -0.407  -1.687   1.421  1.00  0.00     0.011 A 
ATOM      5  C   UNL     1      -1.966  -1.782  -0.407  1.00  0.00     0.011 A 
ATOM      6  C   UNL     1       0.629  -1.394   0.529  1.00  0.00     0.006 A 
ATOM      7  C   UNL     1      -0.932  -1.485  -1.302  1.00  0.00     0.006 A 
BRANCH   3   8
ATOM      8  C   UNL     1      -2.801  -2.188   1.940  1.00  0.00     0.078 A 
ATOM      9  C   UNL     1      -4.646  -3.026   3.832  1.00  0.00     0.036 A 
ATOM     10  C   UNL     1      -3.407  -3.621   3.683  1.00  0.00     0.123 A 
ATOM     11  C   UNL     1      -4.951  -1.956   2.988  1.00  0.00     0.024 A 
ATOM     12  N   UNL     1      -2.489  -3.226   2.772  1.00  0.00    -0.255 NA
ATOM     13  C   UNL     1      -4.031  -1.505   2.020  1.00  0.00     0.009 A 
BRANCH   9  14
ATOM     14  C   UNL     1      -5.637  -3.477   4.843  1.00  0.00     0.161 C 
ATOM     15  C   UNL     1      -5.259  -4.579   5.799  1.00  0.00     0.093 C 
ATOM     16  O   UNL     1      -6.746  -2.950   4.884  1.00  0.00    -0.294 OA
ENDBRANCH   9  14
BRANCH  13  17
ATOM     17  C   UNL     1      -4.392  -0.344   1.187  1.00  0.00    -0.016 A 
ATOM     18  C   UNL     1      -5.524  -0.377   0.358  1.00  0.00     0.011 A 
ATOM     19  C   UNL     1      -3.635   0.836   1.211  1.00  0.00     0.011 A 
ATOM     20  C   UNL     1      -5.875   0.726  -0.429  1.00  0.00     0.026 A 
ATOM     21  C   UNL     1      -3.987   1.936   0.419  1.00  0.00     0.026 A 
ATOM     22  C   UNL     1      -5.106   1.894  -0.420  1.00  0.00     0.037 A 
BRANCH  22  23
ATOM     23  N   UNL     1      -5.464   3.006  -1.208  1.00  0.00    -0.371 N 
ATOM     24  C   UNL     1      -4.590   4.037  -1.695  1.00  0.00     0.118 C 
ATOM     25  C   UNL     1      -6.238   2.998  -2.417  1.00  0.00     0.118 C 
ATOM     26  C   UNL     1      -5.719   4.419  -2.657  1.00  0.00     0.043 C 
ENDBRANCH  22  23
ENDBRANCH  13  17
ENDBRANCH   3   8
ENDBRANCH   1   2
BRANCH   1  27
ATOM     27  N   UNL     1       1.445   0.438  -2.189  1.00  0.00    -0.309 NA
ATOM     28  H   UNL     1       1.506   1.006  -1.346  1.00  0.00     0.123 HD
BRANCH  27  29
ATOM     29  C   UNL     1       2.517   0.810  -3.110  1.00  0.00     0.117 C 
BRANCH  29  30
ATOM     30  C   UNL     1       3.882   0.852  -2.464  1.00  0.00    -0.034 A 
ATOM     31  C   UNL     1       4.213   1.871  -1.561  1.00  0.00     0.006 A 
ATOM     32  C   UNL     1       4.834  -0.137  -2.742  1.00  0.00     0.006 A 
ATOM     33  C   UNL     1       5.469   1.897  -0.946  1.00  0.00     0.009 A 
ATOM     34  C   UNL     1       6.091  -0.108  -2.127  1.00  0.00     0.009 A 
ATOM     35  C   UNL     1       6.422   0.908  -1.222  1.00  0.00    -0.015 A 
BRANCH  35  36
ATOM     36  C   UNL     1       7.719   0.941  -0.566  1.00  0.00     0.020 A 
ATOM     37  C   UNL     1       8.107   1.468   0.689  1.00  0.00     0.143 A 
ATOM     38  C   UNL     1       8.894   0.444  -1.093  1.00  0.00     0.117 A 
ATOM     39  N   UNL     1       9.411   1.314   0.935  1.00  0.00    -0.181 NA
ATOM     40  N   UNL     1       9.865   0.689  -0.165  1.00  0.00    -0.275 N 
ATOM     41  C   UNL     1      11.265   0.356  -0.265  1.00  0.00     0.173 C 
ENDBRANCH  35  36
ENDBRANCH  29  30
ENDBRANCH  27  29
ENDBRANCH   1  27
TORSDOF 9
