
     RDKit          3D

 52 54  0  0  0  0  0  0  0  0999 V2000
   -3.8532   -0.3883    3.4392 C   0  0  0  0  0  0  0  0  0  0  0  0
   -3.3206   -0.0900    2.1556 O   0  0  0  0  0  0  0  0  0  0  0  0
   -4.0611    0.7409    1.3496 C   0  0  0  0  0  0  0  0  0  0  0  0
   -5.0813    1.5768    1.8235 C   0  0  0  0  0  0  0  0  0  0  0  0
   -5.7854    2.4050    0.9467 C   0  0  0  0  0  0  0  0  0  0  0  0
   -5.4748    2.4100   -0.4083 C   0  0  0  0  0  0  0  0  0  0  0  0
   -4.4550    1.5887   -0.8880 C   0  0  0  0  0  0  0  0  0  0  0  0
   -3.7306    0.7441   -0.0247 C   0  0  0  0  0  0  0  0  0  0  0  0
   -2.6475   -0.0994   -0.5781 C   0  0  0  0  0  0  0  0  0  0  0  0
   -1.3130    0.1691   -0.2079 C   0  0  0  0  0  0  0  0  0  0  0  0
   -0.2426   -0.5842   -0.7035 C   0  0  0  0  0  0  0  0  0  0  0  0
    1.0499   -0.2320   -0.2633 N   0  0  0  0  0  0  0  0  0  0  0  0
    2.2539   -0.8264   -0.6063 C   0  0  0  0  0  0  0  0  0  0  0  0
    2.4011   -1.7831   -1.3589 O   0  0  0  0  0  0  0  0  0  0  0  0
    3.4460   -0.1493    0.0779 C   0  0  0  0  0  0  0  0  0  0  0  0
    3.5984    1.3051   -0.4094 C   0  0  0  0  0  0  0  0  0  0  0  0
    5.0469    1.8013   -0.4237 C   0  0  0  0  0  0  0  0  0  0  0  0
    5.8475    1.1993    0.7240 C   0  0  0  0  0  0  0  0  0  0  0  0
    5.9132   -0.3344    0.6413 C   0  0  0  0  0  0  0  0  0  0  0  0
    7.1791   -0.7625    0.0438 N   0  0  0  0  0  0  0  0  0  0  0  0
    4.7405   -0.9396   -0.1468 C   0  0  0  0  0  0  0  0  0  0  0  0
   -0.5118   -1.6209   -1.5913 C   0  0  0  0  0  0  0  0  0  0  0  0
   -1.8283   -1.9072   -1.9740 C   0  0  0  0  0  0  0  0  0  0  0  0
   -2.8997   -1.1600   -1.4736 C   0  0  0  0  0  0  0  0  0  0  0  0
   -4.2138   -1.3840   -1.8011 O   0  0  0  0  0  0  0  0  0  0  0  0
   -4.5106   -2.5336   -2.5813 C   0  0  0  0  0  0  0  0  0  0  0  0
   -3.7822    0.4803    4.1016 H   0  0  0  0  0  0  0  0  0  0  0  0
   -4.8838   -0.7529    3.3724 H   0  0  0  0  0  0  0  0  0  0  0  0
   -3.2456   -1.1873    3.8747 H   0  0  0  0  0  0  0  0  0  0  0  0
   -5.3467    1.6119    2.8746 H   0  0  0  0  0  0  0  0  0  0  0  0
   -6.5770    3.0471    1.3244 H   0  0  0  0  0  0  0  0  0  0  0  0
   -6.0232    3.0507   -1.0935 H   0  0  0  0  0  0  0  0  0  0  0  0
   -4.2219    1.6006   -1.9512 H   0  0  0  0  0  0  0  0  0  0  0  0
   -1.1284    0.9860    0.4870 H   0  0  0  0  0  0  0  0  0  0  0  0
    1.0910    0.5376    0.3930 H   0  0  0  0  0  0  0  0  0  0  0  0
    3.2370   -0.1475    1.1570 H   0  0  0  0  0  0  0  0  0  0  0  0
    3.1746    1.4340   -1.4133 H   0  0  0  0  0  0  0  0  0  0  0  0
    3.0076    1.9545    0.2498 H   0  0  0  0  0  0  0  0  0  0  0  0
    5.5179    1.5378   -1.3787 H   0  0  0  0  0  0  0  0  0  0  0  0
    5.0585    2.8953   -0.3604 H   0  0  0  0  0  0  0  0  0  0  0  0
    5.3723    1.4832    1.6725 H   0  0  0  0  0  0  0  0  0  0  0  0
    6.8525    1.6385    0.7527 H   0  0  0  0  0  0  0  0  0  0  0  0
    5.8920   -0.7246    1.6662 H   0  0  0  0  0  0  0  0  0  0  0  0
    7.1935   -1.7800   -0.0321 H   0  0  0  0  0  0  0  0  0  0  0  0
    7.2465   -0.4138   -0.9123 H   0  0  0  0  0  0  0  0  0  0  0  0
    4.9643   -0.9575   -1.2231 H   0  0  0  0  0  0  0  0  0  0  0  0
    4.6084   -1.9888    0.1483 H   0  0  0  0  0  0  0  0  0  0  0  0
    0.2797   -2.2347   -2.0095 H   0  0  0  0  0  0  0  0  0  0  0  0
   -1.9768   -2.7256   -2.6707 H   0  0  0  0  0  0  0  0  0  0  0  0
   -5.5983   -2.5949   -2.6847 H   0  0  0  0  0  0  0  0  0  0  0  0
   -4.1722   -3.4495   -2.0853 H   0  0  0  0  0  0  0  0  0  0  0  0
   -4.0865   -2.4460   -3.5868 H   0  0  0  0  0  0  0  0  0  0  0  0
  1  2  1  0
  2  3  1  0
  3  4  2  0
  4  5  1  0
  5  6  2  0
  6  7  1  0
  7  8  2  0
  8  9  1  0
  9 10  2  0
 10 11  1  0
 11 12  1  0
 12 13  1  0
 13 14  2  0
 13 15  1  0
 15 16  1  0
 16 17  1  0
 17 18  1  0
 18 19  1  0
 19 20  1  0
 19 21  1  0
 11 22  2  0
 22 23  1  0
 23 24  2  0
 24 25  1  0
 25 26  1  0
  8  3  1  0
 24  9  1  0
 21 15  1  0
  1 27  1  0
  1 28  1  0
  1 29  1  0
  4 30  1  0
  5 31  1  0
  6 32  1  0
  7 33  1  0
 10 34  1  0
 12 35  1  0
 15 36  1  0
 16 37  1  0
 16 38  1  0
 17 39  1  0
 17 40  1  0
 18 41  1  0
 18 42  1  0
 19 43  1  0
 20 44  1  0
 20 45  1  0
 21 46  1  0
 21 47  1  0
 22 48  1  0
 23 49  1  0
 26 50  1  0
 26 51  1  0
 26 52  1  0
M  END
$$$$
