
     RDKit          3D

 55 57  0  0  0  0  0  0  0  0999 V2000
   -2.7958    3.0523   -1.0127 C   0  0  0  0  0  0  0  0  0  0  0  0
   -3.5394    1.7742   -1.3536 C   0  0  0  0  0  0  0  0  0  0  0  0
   -2.6844    0.9695   -2.1757 O   0  0  0  0  0  0  0  0  0  0  0  0
   -3.0836   -0.3431   -2.1316 C   0  0  0  0  0  0  0  0  0  0  0  0
   -3.9612   -0.7871   -3.1238 C   0  0  0  0  0  0  0  0  0  0  0  0
   -4.3767   -2.1172   -3.1368 C   0  0  0  0  0  0  0  0  0  0  0  0
   -3.9043   -3.0011   -2.1688 C   0  0  0  0  0  0  0  0  0  0  0  0
   -3.0081   -2.5573   -1.1911 C   0  0  0  0  0  0  0  0  0  0  0  0
   -2.5751   -1.2207   -1.1545 C   0  0  0  0  0  0  0  0  0  0  0  0
   -1.6158   -0.7749   -0.1243 C   0  0  0  0  0  0  0  0  0  0  0  0
   -0.3257   -0.3672   -0.5203 C   0  0  0  0  0  0  0  0  0  0  0  0
    0.6176    0.0928    0.4043 C   0  0  0  0  0  0  0  0  0  0  0  0
    1.8712    0.4923   -0.1009 N   0  0  0  0  0  0  0  0  0  0  0  0
    2.9388    1.0253    0.6053 C   0  0  0  0  0  0  0  0  0  0  0  0
    2.9737    1.2466    1.8107 O   0  0  0  0  0  0  0  0  0  0  0  0
    4.1353    1.3026   -0.3061 C   0  0  0  0  0  0  0  0  0  0  0  0
    5.2443    2.1128    0.3858 C   0  0  0  0  0  0  0  0  0  0  0  0
    6.3076    1.0850    0.7531 C   0  0  0  0  0  0  0  0  0  0  0  0
    6.2808    0.1475   -0.4477 C   0  0  0  0  0  0  0  0  0  0  0  0
    6.9557   -1.1172   -0.2130 N   0  0  0  0  0  0  0  0  0  0  0  0
    4.7876   -0.0247   -0.7367 C   0  0  0  0  0  0  0  0  0  0  0  0
    0.2689    0.1305    1.7506 C   0  0  0  0  0  0  0  0  0  0  0  0
   -1.0043   -0.2765    2.1692 C   0  0  0  0  0  0  0  0  0  0  0  0
   -1.9523   -0.7239    1.2441 C   0  0  0  0  0  0  0  0  0  0  0  0
   -3.2269   -1.1125    1.5695 O   0  0  0  0  0  0  0  0  0  0  0  0
   -3.6135   -1.0613    2.9399 C   0  0  0  0  0  0  0  0  0  0  0  0
   -5.0571   -1.5217    3.0329 C   0  0  0  0  0  0  0  0  0  0  0  0
   -1.8434    2.8285   -0.5192 H   0  0  0  0  0  0  0  0  0  0  0  0
   -3.3954    3.6893   -0.3559 H   0  0  0  0  0  0  0  0  0  0  0  0
   -2.5590    3.6114   -1.9244 H   0  0  0  0  0  0  0  0  0  0  0  0
   -4.4500    2.0165   -1.9147 H   0  0  0  0  0  0  0  0  0  0  0  0
   -3.8232    1.2633   -0.4252 H   0  0  0  0  0  0  0  0  0  0  0  0
   -4.3190   -0.0960   -3.8810 H   0  0  0  0  0  0  0  0  0  0  0  0
   -5.0669   -2.4632   -3.9018 H   0  0  0  0  0  0  0  0  0  0  0  0
   -4.2277   -4.0380   -2.1722 H   0  0  0  0  0  0  0  0  0  0  0  0
   -2.6443   -3.2639   -0.4474 H   0  0  0  0  0  0  0  0  0  0  0  0
   -0.0778   -0.4046   -1.5789 H   0  0  0  0  0  0  0  0  0  0  0  0
    1.9877    0.4027   -1.1026 H   0  0  0  0  0  0  0  0  0  0  0  0
    3.7721    1.8671   -1.1750 H   0  0  0  0  0  0  0  0  0  0  0  0
    5.6674    2.8285   -0.3304 H   0  0  0  0  0  0  0  0  0  0  0  0
    4.9116    2.6847    1.2571 H   0  0  0  0  0  0  0  0  0  0  0  0
    6.0271    0.5641    1.6780 H   0  0  0  0  0  0  0  0  0  0  0  0
    7.2907    1.5458    0.9035 H   0  0  0  0  0  0  0  0  0  0  0  0
    6.7564    0.6436   -1.3037 H   0  0  0  0  0  0  0  0  0  0  0  0
    6.5000   -1.6197    0.5491 H   0  0  0  0  0  0  0  0  0  0  0  0
    7.9082   -0.9440    0.1064 H   0  0  0  0  0  0  0  0  0  0  0  0
    4.3742   -0.8690   -0.1692 H   0  0  0  0  0  0  0  0  0  0  0  0
    4.6115   -0.2351   -1.7984 H   0  0  0  0  0  0  0  0  0  0  0  0
    0.9646    0.4726    2.5111 H   0  0  0  0  0  0  0  0  0  0  0  0
   -1.2201   -0.2226    3.2317 H   0  0  0  0  0  0  0  0  0  0  0  0
   -3.5400   -0.0368    3.3202 H   0  0  0  0  0  0  0  0  0  0  0  0
   -2.9854   -1.7319    3.5362 H   0  0  0  0  0  0  0  0  0  0  0  0
   -5.1675   -2.5328    2.6244 H   0  0  0  0  0  0  0  0  0  0  0  0
   -5.4014   -1.5192    4.0714 H   0  0  0  0  0  0  0  0  0  0  0  0
   -5.7078   -0.8667    2.4425 H   0  0  0  0  0  0  0  0  0  0  0  0
  1  2  1  0
  2  3  1  0
  3  4  1  0
  4  5  2  0
  5  6  1  0
  6  7  2  0
  7  8  1  0
  8  9  2  0
  9 10  1  0
 10 11  2  0
 11 12  1  0
 12 13  1  0
 13 14  1  0
 14 15  2  0
 14 16  1  0
 16 17  1  0
 17 18  1  0
 18 19  1  0
 19 20  1  0
 19 21  1  0
 12 22  2  0
 22 23  1  0
 23 24  2  0
 24 25  1  0
 25 26  1  0
 26 27  1  0
  9  4  1  0
 24 10  1  0
 21 16  1  0
  1 28  1  0
  1 29  1  0
  1 30  1  0
  2 31  1  0
  2 32  1  0
  5 33  1  0
  6 34  1  0
  7 35  1  0
  8 36  1  0
 11 37  1  0
 13 38  1  0
 16 39  1  0
 17 40  1  0
 17 41  1  0
 18 42  1  0
 18 43  1  0
 19 44  1  0
 20 45  1  0
 20 46  1  0
 21 47  1  0
 21 48  1  0
 22 49  1  0
 23 50  1  0
 26 51  1  0
 26 52  1  0
 27 53  1  0
 27 54  1  0
 27 55  1  0
M  END
$$$$
