
     RDKit          3D

 51 53  0  0  0  0  0  0  0  0999 V2000
    5.6293   -2.3312   -2.0787 N   0  0  0  0  0  0  0  0  0  0  0  0
    4.3670   -2.9541   -2.4584 C   0  0  0  0  0  0  0  0  0  0  0  0
    3.5359   -3.4061   -1.2547 C   0  0  0  0  0  0  0  0  0  0  0  0
    3.1193   -2.3000   -0.2785 C   0  0  0  0  0  0  0  0  0  0  0  0
    2.2572   -1.2128   -0.9230 C   0  0  0  0  0  0  0  0  0  0  0  0
    1.7687   -0.2028    0.1189 C   0  0  0  0  0  0  0  0  0  0  0  0
    0.9025    0.8862   -0.5273 C   0  0  0  0  0  0  0  0  0  0  0  0
    0.4522    1.9554    0.4839 C   0  0  0  0  0  0  0  0  0  0  0  0
   -0.1953    3.2048   -0.1332 C   0  0  0  0  0  0  0  0  0  0  0  0
   -1.1107    3.0004   -1.1948 O   0  0  0  0  0  0  0  0  0  0  0  0
   -2.0914    2.0516   -1.1439 C   0  0  0  0  0  0  0  0  0  0  0  0
   -2.7620    1.9956   -2.3845 C   0  0  0  0  0  0  0  0  0  0  0  0
   -3.7442    1.0515   -2.6470 C   0  0  0  0  0  0  0  0  0  0  0  0
   -4.0267    0.1177   -1.6703 C   0  0  0  0  0  0  0  0  0  0  0  0
   -4.9443   -0.8770   -1.9036 O   0  0  0  0  0  0  0  0  0  0  0  0
   -3.3551    0.1233   -0.4288 C   0  0  0  0  0  0  0  0  0  0  0  0
   -3.7463   -0.8792    0.5062 N   0  0  0  0  0  0  0  0  0  0  0  0
   -2.4306    1.1665   -0.0956 C   0  0  0  0  0  0  0  0  0  0  0  0
   -1.8654    1.2449    1.2859 C   0  0  0  0  0  0  0  0  0  0  0  0
   -2.7199    1.0822    2.4014 C   0  0  0  0  0  0  0  0  0  0  0  0
   -2.2288    1.0329    3.7038 C   0  0  0  0  0  0  0  0  0  0  0  0
   -3.0587    0.8407    4.7682 O   0  0  0  0  0  0  0  0  0  0  0  0
   -0.8772    1.1720    3.9514 C   0  0  0  0  0  0  0  0  0  0  0  0
   -0.0166    1.4063    2.8847 C   0  0  0  0  0  0  0  0  0  0  0  0
   -0.5006    1.4735    1.5588 C   0  0  0  0  0  0  0  0  0  0  0  0
    6.1393   -2.9489   -1.4483 H   0  0  0  0  0  0  0  0  0  0  0  0
    5.4492   -1.4778   -1.5523 H   0  0  0  0  0  0  0  0  0  0  0  0
    4.5891   -3.8280   -3.0810 H   0  0  0  0  0  0  0  0  0  0  0  0
    3.7964   -2.2633   -3.0873 H   0  0  0  0  0  0  0  0  0  0  0  0
    2.6336   -3.9076   -1.6268 H   0  0  0  0  0  0  0  0  0  0  0  0
    4.0987   -4.1651   -0.6960 H   0  0  0  0  0  0  0  0  0  0  0  0
    4.0063   -1.8478    0.1802 H   0  0  0  0  0  0  0  0  0  0  0  0
    2.5549   -2.7665    0.5389 H   0  0  0  0  0  0  0  0  0  0  0  0
    2.8321   -0.6838   -1.6913 H   0  0  0  0  0  0  0  0  0  0  0  0
    1.3948   -1.6736   -1.4197 H   0  0  0  0  0  0  0  0  0  0  0  0
    2.6317    0.2580    0.6144 H   0  0  0  0  0  0  0  0  0  0  0  0
    1.1931   -0.7295    0.8889 H   0  0  0  0  0  0  0  0  0  0  0  0
    0.0536    0.4023   -1.0188 H   0  0  0  0  0  0  0  0  0  0  0  0
    1.4849    1.3767   -1.3177 H   0  0  0  0  0  0  0  0  0  0  0  0
    1.3591    2.3211    0.9872 H   0  0  0  0  0  0  0  0  0  0  0  0
    0.6103    3.8115   -0.5658 H   0  0  0  0  0  0  0  0  0  0  0  0
   -0.6683    3.8463    0.6226 H   0  0  0  0  0  0  0  0  0  0  0  0
   -2.4915    2.7064   -3.1643 H   0  0  0  0  0  0  0  0  0  0  0  0
   -4.2381    1.0427   -3.6119 H   0  0  0  0  0  0  0  0  0  0  0  0
   -5.3837   -0.6937   -2.7500 H   0  0  0  0  0  0  0  0  0  0  0  0
   -2.9580   -1.2125    1.0544 H   0  0  0  0  0  0  0  0  0  0  0  0
   -4.2279   -1.6318    0.0120 H   0  0  0  0  0  0  0  0  0  0  0  0
   -3.7907    0.9780    2.2356 H   0  0  0  0  0  0  0  0  0  0  0  0
   -3.9659    0.7420    4.4329 H   0  0  0  0  0  0  0  0  0  0  0  0
   -0.4994    1.1313    4.9684 H   0  0  0  0  0  0  0  0  0  0  0  0
    1.0379    1.5718    3.0962 H   0  0  0  0  0  0  0  0  0  0  0  0
  1  2  1  0
  2  3  1  0
  3  4  1  0
  4  5  1  0
  5  6  1  0
  6  7  1  0
  7  8  1  0
  8  9  1  0
  9 10  1  0
 10 11  1  0
 11 12  2  0
 12 13  1  0
 13 14  2  0
 14 15  1  0
 14 16  1  0
 16 17  1  0
 16 18  2  0
 18 19  1  0
 19 20  2  0
 20 21  1  0
 21 22  1  0
 21 23  2  0
 23 24  1  0
 24 25  2  0
 25  8  1  0
 18 11  1  0
 25 19  1  0
  1 26  1  0
  1 27  1  0
  2 28  1  0
  2 29  1  0
  3 30  1  0
  3 31  1  0
  4 32  1  0
  4 33  1  0
  5 34  1  0
  5 35  1  0
  6 36  1  0
  6 37  1  0
  7 38  1  0
  7 39  1  0
  8 40  1  0
  9 41  1  0
  9 42  1  0
 12 43  1  0
 13 44  1  0
 15 45  1  0
 17 46  1  0
 17 47  1  0
 20 48  1  0
 22 49  1  0
 23 50  1  0
 24 51  1  0
M  END
$$$$
