
     RDKit          3D

 46 48  0  0  0  0  0  0  0  0999 V2000
   -3.3338   -0.3701    2.4739 C   0  0  0  0  0  0  0  0  0  0  0  0
   -2.8460    0.8785    1.9794 O   0  0  0  0  0  0  0  0  0  0  0  0
   -3.7222    1.3824    1.0473 C   0  0  0  0  0  0  0  0  0  0  0  0
   -4.7309    2.2353    1.5075 C   0  0  0  0  0  0  0  0  0  0  0  0
   -5.6333    2.7938    0.6065 C   0  0  0  0  0  0  0  0  0  0  0  0
   -5.5178    2.5112   -0.7522 C   0  0  0  0  0  0  0  0  0  0  0  0
   -4.4930    1.6770   -1.2107 C   0  0  0  0  0  0  0  0  0  0  0  0
   -3.5668    1.0986   -0.3234 C   0  0  0  0  0  0  0  0  0  0  0  0
   -2.4690    0.2556   -0.8415 C   0  0  0  0  0  0  0  0  0  0  0  0
   -1.1304    0.6192   -0.5922 C   0  0  0  0  0  0  0  0  0  0  0  0
   -0.0521   -0.1438   -1.0638 C   0  0  0  0  0  0  0  0  0  0  0  0
    1.2433    0.3129   -0.7450 N   0  0  0  0  0  0  0  0  0  0  0  0
    2.4554   -0.2582   -1.0988 C   0  0  0  0  0  0  0  0  0  0  0  0
    2.6087   -1.2732   -1.7689 O   0  0  0  0  0  0  0  0  0  0  0  0
    3.6441    0.5307   -0.5374 C   0  0  0  0  0  0  0  0  0  0  0  0
    4.9999    0.0569   -1.0862 C   0  0  0  0  0  0  0  0  0  0  0  0
    5.6777   -0.7302    0.0394 C   0  0  0  0  0  0  0  0  0  0  0  0
    4.5962   -0.9283    1.0977 C   0  0  0  0  0  0  0  0  0  0  0  0
    5.1298   -1.1143    2.4370 N   0  0  0  0  0  0  0  0  0  0  0  0
    3.7559    0.3398    0.9776 C   0  0  0  0  0  0  0  0  0  0  0  0
   -0.3157   -1.2928   -1.8061 C   0  0  0  0  0  0  0  0  0  0  0  0
   -1.6331   -1.6784   -2.0685 C   0  0  0  0  0  0  0  0  0  0  0  0
   -2.6950   -0.9112   -1.5884 C   0  0  0  0  0  0  0  0  0  0  0  0
   -3.9790   -1.3154   -1.8406 O   0  0  0  0  0  0  0  0  0  0  0  0
   -2.5817   -0.7737    3.1589 H   0  0  0  0  0  0  0  0  0  0  0  0
   -4.2641   -0.2314    3.0362 H   0  0  0  0  0  0  0  0  0  0  0  0
   -3.4821   -1.0973    1.6681 H   0  0  0  0  0  0  0  0  0  0  0  0
   -4.8093    2.4613    2.5670 H   0  0  0  0  0  0  0  0  0  0  0  0
   -6.4227    3.4504    0.9617 H   0  0  0  0  0  0  0  0  0  0  0  0
   -6.2192    2.9440   -1.4608 H   0  0  0  0  0  0  0  0  0  0  0  0
   -4.4140    1.4791   -2.2782 H   0  0  0  0  0  0  0  0  0  0  0  0
   -0.9424    1.5212   -0.0120 H   0  0  0  0  0  0  0  0  0  0  0  0
    1.2831    1.1558   -0.1848 H   0  0  0  0  0  0  0  0  0  0  0  0
    3.4863    1.5859   -0.7924 H   0  0  0  0  0  0  0  0  0  0  0  0
    4.9142   -0.5479   -1.9942 H   0  0  0  0  0  0  0  0  0  0  0  0
    5.6232    0.9220   -1.3429 H   0  0  0  0  0  0  0  0  0  0  0  0
    6.5189   -0.1443    0.4317 H   0  0  0  0  0  0  0  0  0  0  0  0
    6.0828   -1.6843   -0.3141 H   0  0  0  0  0  0  0  0  0  0  0  0
    3.9840   -1.8015    0.8396 H   0  0  0  0  0  0  0  0  0  0  0  0
    5.7268   -1.9417    2.4510 H   0  0  0  0  0  0  0  0  0  0  0  0
    5.7333   -0.3317    2.6880 H   0  0  0  0  0  0  0  0  0  0  0  0
    4.2773    1.2001    1.4178 H   0  0  0  0  0  0  0  0  0  0  0  0
    2.7920    0.2348    1.4855 H   0  0  0  0  0  0  0  0  0  0  0  0
    0.4823   -1.9179   -2.1941 H   0  0  0  0  0  0  0  0  0  0  0  0
   -1.8059   -2.5815   -2.6462 H   0  0  0  0  0  0  0  0  0  0  0  0
   -3.9556   -2.1545   -2.3282 H   0  0  0  0  0  0  0  0  0  0  0  0
  1  2  1  0
  2  3  1  0
  3  4  2  0
  4  5  1  0
  5  6  2  0
  6  7  1  0
  7  8  2  0
  8  9  1  0
  9 10  2  0
 10 11  1  0
 11 12  1  0
 12 13  1  0
 13 14  2  0
 13 15  1  0
 15 16  1  0
 16 17  1  0
 17 18  1  0
 18 19  1  0
 18 20  1  0
 11 21  2  0
 21 22  1  0
 22 23  2  0
 23 24  1  0
  8  3  1  0
 23  9  1  0
 20 15  1  0
  1 25  1  0
  1 26  1  0
  1 27  1  0
  4 28  1  0
  5 29  1  0
  6 30  1  0
  7 31  1  0
 10 32  1  0
 12 33  1  0
 15 34  1  0
 16 35  1  0
 16 36  1  0
 17 37  1  0
 17 38  1  0
 18 39  1  0
 19 40  1  0
 19 41  1  0
 20 42  1  0
 20 43  1  0
 21 44  1  0
 22 45  1  0
 24 46  1  0
M  END
$$$$
