MODEL        2USER    Run = 2USERUSER    Estimated Free Energy of Binding    =  -7.19 kcal/mol  [=(1)+(2)+(3)-(4)]USERUSER    (1) Final Intermolecular Energy     = -10.47 kcal/molUSER        vdW + Hbond + desolv Energy     = -10.40 kcal/molUSER        Electrostatic Energy            =  -0.06 kcal/molUSER        Moving Ligand-Fixed Receptor    = -10.47 kcal/molUSER        Moving Ligand-Moving Receptor   =  +0.00 kcal/molUSER    (2) Final Total Internal Energy     =  -1.79 kcal/molUSER    (3) Torsional Free Energy           =  +3.28 kcal/molUSER    (4) Unbound System's Energy         =  -1.79 kcal/molUSERUSERREMARK SMILES CCC=NC(N)=NC(=N)N1CCN(C[C@H](O)c2ccccc2OC)CC1REMARK SMILES IDX 8 1 10 2 11 3 12 4 13 5 25 6 26 7 7 8 5 9 6 10 4 13 3 14REMARK SMILES IDX 2 15 1 16 9 17 14 19 15 20 16 21 17 23 18 24 22 25 19 26REMARK SMILES IDX 21 27 20 28 23 29 24 30REMARK H PARENT 6 11 6 12 9 18 16 22USER                              x       y       z     vdW  Elec       q    TypeUSER                           _______ _______ _______ _____ _____    ______ ____ROOTATOM      1  C   UNL     1      38.449  48.480  15.466 -0.39 -0.13    +0.221 C  ATOM      2  N   UNL     1      37.926  47.262  15.842 -0.18 +0.18    -0.339 N  ATOM      3  C   UNL     1      38.868  46.185  16.212 -0.37 -0.04    +0.135 C  ATOM      4  C   UNL     1      38.148  45.077  17.013 -0.33 -0.03    +0.106 C  ATOM      5  N   UNL     1      36.969  44.519  16.314 -0.15 +0.10    -0.297 NA ATOM      6  C   UNL     1      36.068  45.623  15.918 -0.34 -0.06    +0.106 C  ATOM      7  C   UNL     1      36.778  46.715  15.092 -0.36 -0.09    +0.135 C  ENDROOTBRANCH   1   8ATOM      8  N   UNL     1      39.783  48.603  15.215 -0.40 +0.07    -0.178 NA BRANCH   8   9ATOM      9  C   UNL     1      40.540  49.376  15.917 -0.45 -0.06    +0.222 C  ATOM     10  N   UNL     1      40.473  50.728  16.032 -0.12 +0.18    -0.368 N  ATOM     11  H   UNL     1      39.942  51.090  15.233 -0.37 -0.15    +0.159 HD ATOM     12  H   UNL     1      41.396  51.132  16.094 -0.46 -0.07    +0.159 HD BRANCH   9  13ATOM     13  N   UNL     1      41.553  48.773  16.603 -0.87 -0.01    -0.226 NA BRANCH  13  14ATOM     14  C   UNL     1      41.165  47.907  17.480 -0.50 -0.01    +0.087 C  BRANCH  14  15ATOM     15  C   UNL     1      42.131  47.369  18.499 -0.57 -0.00    +0.044 C  ATOM     16  C   UNL     1      41.794  45.928  18.821 -0.50 +0.00    +0.010 C  ENDBRANCH  14  15ENDBRANCH  13  14ENDBRANCH   9  13ENDBRANCH   8   9ENDBRANCH   1   8BRANCH   1  17ATOM     17  N   UNL     1      37.687  49.521  15.333 -0.27 +0.25    -0.267 NA ATOM     18  H   UNL     1      38.299  50.336  15.401 -0.41 -0.20    +0.191 HD ENDBRANCH   1  17BRANCH   5  19ATOM     19  C   UNL     1      36.234  43.545  17.159 -0.30 -0.04    +0.121 C  BRANCH  19  20ATOM     20  C   UNL     1      35.540  44.139  18.420 -0.28 -0.04    +0.162 C  BRANCH  20  21ATOM     21  O   UNL     1      35.721  45.555  18.494 -0.15 +0.14    -0.387 OA ATOM     22  H   UNL     1      36.628  45.719  18.177 +0.13 -0.07    +0.211 HD ENDBRANCH  20  21BRANCH  20  23ATOM     23  C   UNL     1      36.048  43.482  19.695 -0.39 -0.00    +0.024 A  ATOM     24  C   UNL     1      35.357  42.361  20.193 -0.44 -0.00    +0.010 A  ATOM     25  C   UNL     1      37.197  43.935  20.379 -0.31 -0.00    +0.124 A  ATOM     26  C   UNL     1      35.796  41.701  21.338 -0.47 +0.00    +0.001 A  ATOM     27  C   UNL     1      37.625  43.268  21.530 -0.35 +0.00    +0.047 A  ATOM     28  C   UNL     1      36.930  42.154  22.005 -0.51 +0.00    +0.004 A  BRANCH  25  29ATOM     29  O   UNL     1      37.816  45.038  19.846 -0.08 +0.02    -0.496 OA ATOM     30  C   UNL     1      39.049  45.443  20.434 -0.22 +0.00    +0.278 C  ENDBRANCH  25  29ENDBRANCH  20  23ENDBRANCH  19  20ENDBRANCH   5  19TORSDOF 11TERENDMDL