REMARK SMILES CO[CH]CNc1ccc(NCc2ccccc2)nc1-c1cnnn1CCO
REMARK SMILES IDX 6 1 7 2 8 3 9 4 18 5 19 6 5 7 4 9 3 10 2 11 1 12 20 13 21 14
REMARK SMILES IDX 24 15 22 16 23 17 25 18 26 19 27 20 10 22 11 24 12 25 13 26
REMARK SMILES IDX 17 27 14 28 16 29 15 30
REMARK H PARENT 5 8 27 21 10 23
ROOT
ATOM      1  C   UNL     1      -1.649  -1.654  -0.110  1.00  0.00     0.063 A 
ATOM      2  C   UNL     1      -0.735  -2.590  -0.592  1.00  0.00     0.032 A 
ATOM      3  C   UNL     1       0.620  -2.271  -0.695  1.00  0.00     0.049 A 
ATOM      4  C   UNL     1       1.073  -1.025  -0.280  1.00  0.00     0.127 A 
ATOM      5  N   UNL     1       0.228  -0.108   0.224  1.00  0.00    -0.227 NA
ATOM      6  C   UNL     1      -1.089  -0.433   0.326  1.00  0.00     0.115 A 
ENDROOT
BRANCH   1   7
ATOM      7  N   UNL     1      -3.011  -1.948   0.051  1.00  0.00    -0.381 N 
ATOM      8  H   UNL     1      -3.587  -1.106  -0.027  1.00  0.00     0.160 HD
BRANCH   7   9
ATOM      9  C   UNL     1      -3.622  -3.034  -0.697  1.00  0.00     0.147 C 
BRANCH   9  10
ATOM     10  C   UNL     1      -5.092  -2.959  -0.471  1.00  0.00     0.167 C 
BRANCH  10  11
ATOM     11  O   UNL     1      -5.714  -1.749  -0.657  1.00  0.00    -0.377 OA
ATOM     12  C   UNL     1      -7.023  -1.742  -0.093  1.00  0.00     0.195 C 
ENDBRANCH  10  11
ENDBRANCH   9  10
ENDBRANCH   7   9
ENDBRANCH   1   7
BRANCH   6  13
ATOM     13  C   UNL     1      -1.879   0.612   0.968  1.00  0.00     0.109 A 
ATOM     14  C   UNL     1      -2.854   0.541   1.945  1.00  0.00     0.167 A 
ATOM     15  N   UNL     1      -1.786   1.962   0.733  1.00  0.00    -0.241 N 
ATOM     16  N   UNL     1      -3.322   1.787   2.240  1.00  0.00    -0.138 NA
ATOM     17  N   UNL     1      -2.667   2.655   1.486  1.00  0.00    -0.067 NA
BRANCH  15  18
ATOM     18  C   UNL     1      -0.930   2.689  -0.176  1.00  0.00     0.175 C 
BRANCH  18  19
ATOM     19  C   UNL     1       0.218   3.362   0.558  1.00  0.00     0.179 C 
BRANCH  19  20
ATOM     20  O   UNL     1       1.091   3.994  -0.376  1.00  0.00    -0.394 OA
ATOM     21  H   UNL     1       1.781   4.445   0.142  1.00  0.00     0.210 HD
ENDBRANCH  19  20
ENDBRANCH  18  19
ENDBRANCH  15  18
ENDBRANCH   6  13
BRANCH   4  22
ATOM     22  N   UNL     1       2.432  -0.730  -0.451  1.00  0.00    -0.366 N 
ATOM     23  H   UNL     1       3.002  -1.479  -0.069  1.00  0.00     0.162 HD
BRANCH  22  24
ATOM     24  C   UNL     1       2.845   0.568   0.060  1.00  0.00     0.150 C 
BRANCH  24  25
ATOM     25  C   UNL     1       4.345   0.693  -0.072  1.00  0.00    -0.029 A 
ATOM     26  C   UNL     1       4.921   1.044  -1.301  1.00  0.00     0.005 A 
ATOM     27  C   UNL     1       5.185   0.425   1.020  1.00  0.00     0.005 A 
ATOM     28  C   UNL     1       6.307   1.143  -1.432  1.00  0.00     0.000 A 
ATOM     29  C   UNL     1       6.571   0.524   0.887  1.00  0.00     0.000 A 
ATOM     30  C   UNL     1       7.131   0.884  -0.337  1.00  0.00     0.000 A 
ENDBRANCH  24  25
ENDBRANCH  22  24
ENDBRANCH   4  22
TORSDOF 11
