MODEL        6USER    Run = 6USERUSER    Estimated Free Energy of Binding    =  -8.37 kcal/mol  [=(1)+(2)+(3)-(4)]USERUSER    (1) Final Intermolecular Energy     = -10.16 kcal/molUSER        vdW + Hbond + desolv Energy     =  -9.98 kcal/molUSER        Electrostatic Energy            =  -0.19 kcal/molUSER        Moving Ligand-Fixed Receptor    = -10.16 kcal/molUSER        Moving Ligand-Moving Receptor   =  +0.00 kcal/molUSER    (2) Final Total Internal Energy     =  -1.46 kcal/molUSER    (3) Torsional Free Energy           =  +1.79 kcal/molUSER    (4) Unbound System's Energy         =  -1.46 kcal/molUSERUSERREMARK SMILES CCCc1cc(F)ccc1Nc1c(C(=O)O)[nH]c2ccccc12REMARK SMILES IDX 11 1 10 3 4 4 5 5 6 6 9 7 8 8 7 9 3 10 2 11 1 12 12 13 13 14REMARK SMILES IDX 23 15 17 16 22 17 18 18 21 19 19 20 20 21 14 23 15 24 16 25REMARK H PARENT 11 2 17 22 16 26USER                              x       y       z     vdW  Elec       q    TypeUSER                           _______ _______ _______ _____ _____    ______ ____ROOTATOM      1  N   UNL     1      39.964  46.283  16.589 -0.18 +0.05    -0.353 N  ATOM      2  H   UNL     1      40.841  45.803  16.372 +0.09 -0.00    +0.167 HD ENDROOTBRANCH   1   3ATOM      3  C   UNL     1      39.324  45.646  17.674 -0.39 -0.01    +0.042 A  ATOM      4  C   UNL     1      40.008  45.305  18.860 -0.43 +0.00    -0.022 A  ATOM      5  C   UNL     1      39.282  44.736  19.921 -0.35 -0.00    +0.045 A  ATOM      6  C   UNL     1      37.908  44.548  19.815 -0.27 -0.01    +0.123 A  ATOM      7  C   UNL     1      37.930  45.483  17.608 -0.36 -0.01    +0.029 A  ATOM      8  C   UNL     1      37.224  44.922  18.670 -0.31 -0.01    +0.041 A  ATOM      9  F   UNL     1      37.235  44.008  20.840 -0.10 -0.00    -0.207 F  BRANCH   4  10ATOM     10  C   UNL     1      41.494  45.523  19.038 -0.46 +0.00    +0.037 C  BRANCH  10  11ATOM     11  C   UNL     1      41.826  46.951  19.473 -0.48 +0.00    +0.001 C  ATOM     12  C   UNL     1      43.189  47.385  18.959 -0.56 +0.00    +0.004 C  ENDBRANCH  10  11ENDBRANCH   4  10ENDBRANCH   1   3BRANCH   1  13ATOM     13  C   UNL     1      39.376  46.994  15.588 -0.41 -0.02    +0.079 A  ATOM     14  C   UNL     1      39.701  48.307  15.299 -0.43 -0.05    +0.149 A  ATOM     15  C   UNL     1      38.343  46.580  14.688 -0.41 -0.01    +0.024 A  ATOM     16  N   UNL     1      38.904  48.689  14.246 -0.19 +0.16    -0.347 N  ATOM     17  C   UNL     1      37.595  45.398  14.489 -0.39 -0.00    +0.012 A  ATOM     18  C   UNL     1      38.076  47.667  13.854 -0.49 -0.02    +0.048 A  ATOM     19  C   UNL     1      36.634  45.342  13.475 -0.47 -0.00    +0.001 A  ATOM     20  C   UNL     1      37.117  47.631  12.834 -0.55 -0.01    +0.027 A  ATOM     21  C   UNL     1      36.399  46.445  12.659 -0.63 -0.00    +0.002 A  ATOM     22  H   UNL     1      38.934  49.609  13.828 -0.28 -0.13    +0.167 HD BRANCH  14  23ATOM     23  C   UNL     1      40.670  49.158  15.919 -0.37 -0.08    +0.354 C  ATOM     24  O   UNL     1      41.424  48.892  16.842 -1.03 -0.00    -0.245 OA BRANCH  23  25ATOM     25  O   UNL     1      40.688  50.379  15.341 -0.29 +0.22    -0.477 OA ATOM     26  H   UNL     1      39.750  50.658  15.396 -0.25 -0.26    +0.297 HD ENDBRANCH  23  25ENDBRANCH  14  23ENDBRANCH   1  13TORSDOF 6TERENDMDL