REMARK SMILES NCCCCNC(=O)Cc1ccccc1-c1ccnc(-c2ccccc2)n1
REMARK SMILES IDX 5 1 4 2 3 3 2 4 1 5 6 8 7 9 8 11 9 12 10 13 11 14 15 15
REMARK SMILES IDX 12 16 14 17 13 18 16 19 17 20 27 21 18 22 20 23 19 24 21 25
REMARK SMILES IDX 22 26 26 27 23 28 25 29 24 30
REMARK H PARENT 1 6 1 7 6 10
ROOT
ATOM      1  C   UNL     1       2.290   1.022  -0.195  1.00  0.00     0.116 C 
ENDROOT
BRANCH   1   2
ATOM      2  C   UNL     1       1.793   1.150   1.243  1.00  0.00     0.023 C 
BRANCH   2   3
ATOM      3  C   UNL     1       2.718   1.984   2.133  1.00  0.00     0.017 C 
BRANCH   3   4
ATOM      4  C   UNL     1       2.784   3.453   1.717  1.00  0.00     0.077 C 
BRANCH   4   5
ATOM      5  N   UNL     1       3.612   4.220   2.641  1.00  0.00    -0.330 NA
ATOM      6  H   UNL     1       3.235   4.141   3.585  1.00  0.00     0.118 HD
ATOM      7  H   UNL     1       4.547   3.814   2.682  1.00  0.00     0.118 HD
ENDBRANCH   4   5
ENDBRANCH   3   4
ENDBRANCH   2   3
ENDBRANCH   1   2
BRANCH   1   8
ATOM      8  N   UNL     1       1.450   0.141  -0.979  1.00  0.00    -0.356 N 
ATOM      9  C   UNL     1       1.599  -1.232  -0.942  1.00  0.00     0.224 C 
ATOM     10  H   UNL     1       0.577   0.513  -1.336  1.00  0.00     0.163 HD
ATOM     11  O   UNL     1       2.469  -1.793  -0.281  1.00  0.00    -0.275 OA
BRANCH   9  12
ATOM     12  C   UNL     1       0.627  -1.978  -1.843  1.00  0.00     0.136 C 
BRANCH  12  13
ATOM     13  C   UNL     1       0.022  -3.222  -1.221  1.00  0.00    -0.029 A 
ATOM     14  C   UNL     1       0.304  -4.463  -1.829  1.00  0.00     0.005 A 
ATOM     15  C   UNL     1      -0.814  -3.180  -0.078  1.00  0.00     0.004 A 
ATOM     16  C   UNL     1      -0.228  -5.649  -1.329  1.00  0.00     0.000 A 
ATOM     17  C   UNL     1      -1.344  -4.399   0.399  1.00  0.00     0.010 A 
ATOM     18  C   UNL     1      -1.056  -5.619  -0.216  1.00  0.00     0.001 A 
BRANCH  15  19
ATOM     19  C   UNL     1      -1.150  -1.929   0.632  1.00  0.00     0.075 A 
ATOM     20  C   UNL     1      -1.006  -1.806   2.001  1.00  0.00     0.049 A 
ATOM     21  N   UNL     1      -1.613  -0.915  -0.130  1.00  0.00    -0.228 NA
ATOM     22  C   UNL     1      -1.367  -0.599   2.547  1.00  0.00     0.116 A 
ATOM     23  C   UNL     1      -1.940   0.232   0.495  1.00  0.00     0.159 A 
ATOM     24  N   UNL     1      -1.832   0.432   1.822  1.00  0.00    -0.237 NA
BRANCH  23  25
ATOM     25  C   UNL     1      -2.380   1.365  -0.344  1.00  0.00     0.019 A 
ATOM     26  C   UNL     1      -2.528   2.660   0.187  1.00  0.00     0.012 A 
ATOM     27  C   UNL     1      -2.654   1.199  -1.717  1.00  0.00     0.012 A 
ATOM     28  C   UNL     1      -2.925   3.738  -0.612  1.00  0.00     0.001 A 
ATOM     29  C   UNL     1      -3.051   2.274  -2.519  1.00  0.00     0.001 A 
ATOM     30  C   UNL     1      -3.185   3.543  -1.965  1.00  0.00     0.000 A 
ENDBRANCH  23  25
ENDBRANCH  15  19
ENDBRANCH  12  13
ENDBRANCH   9  12
ENDBRANCH   1   8
TORSDOF 9
