MODEL        6USER    Run = 6USERUSER    Estimated Free Energy of Binding    =  -6.20 kcal/mol  [=(1)+(2)+(3)-(4)]USERUSER    (1) Final Intermolecular Energy     =  -9.48 kcal/molUSER        vdW + Hbond + desolv Energy     =  -9.35 kcal/molUSER        Electrostatic Energy            =  -0.14 kcal/molUSER        Moving Ligand-Fixed Receptor    =  -9.48 kcal/molUSER        Moving Ligand-Moving Receptor   =  +0.00 kcal/molUSER    (2) Final Total Internal Energy     =  -5.12 kcal/molUSER    (3) Torsional Free Energy           =  +3.28 kcal/molUSER    (4) Unbound System's Energy         =  -5.12 kcal/molUSERUSERREMARK SMILES CO[CH]CNc1ccc(NCc2ccccc2)nc1-c1cnnn1CCOREMARK SMILES IDX 6 1 7 2 8 3 9 4 18 5 19 6 5 7 4 9 3 10 2 11 1 12 20 13 21 14REMARK SMILES IDX 24 15 22 16 23 17 25 18 26 19 27 20 10 22 11 24 12 25 13 26REMARK SMILES IDX 17 27 14 28 16 29 15 30REMARK H PARENT 5 8 27 21 10 23USER                              x       y       z     vdW  Elec       q    TypeUSER                           _______ _______ _______ _____ _____    ______ ____ROOTATOM      1  C   UNL     1      37.848  44.854  19.202 -0.30 -0.01    +0.063 A  ATOM      2  C   UNL     1      39.013  45.447  19.688 -0.35 -0.00    +0.032 A  ATOM      3  C   UNL     1      39.967  45.962  18.809 -0.41 -0.00    +0.049 A  ATOM      4  C   UNL     1      39.742  45.921  17.438 -0.35 -0.02    +0.127 A  ATOM      5  N   UNL     1      38.614  45.389  16.933 -0.21 +0.05    -0.227 NA ATOM      6  C   UNL     1      37.689  44.897  17.800 -0.29 -0.03    +0.115 A  ENDROOTBRANCH   1   7ATOM      7  N   UNL     1      36.845  44.364  20.051 -0.15 +0.02    -0.381 N  ATOM      8  H   UNL     1      35.912  44.599  19.701 +0.10 -0.02    +0.160 HD BRANCH   7   9ATOM      9  C   UNL     1      36.871  42.982  20.498 -0.36 -0.00    +0.147 C  BRANCH   9  10ATOM     10  C   UNL     1      35.659  42.313  19.948 -0.38 -0.01    +0.167 C  BRANCH  10  11ATOM     11  O   UNL     1      34.504  43.049  19.845 -0.38 +0.00    -0.377 OA ATOM     12  C   UNL     1      33.513  42.363  19.086 -0.33 -0.01    +0.195 C  ENDBRANCH  10  11ENDBRANCH   9  10ENDBRANCH   7   9ENDBRANCH   1   7BRANCH   6  13ATOM     13  C   UNL     1      36.480  44.433  17.129 -0.26 -0.04    +0.109 A  ATOM     14  C   UNL     1      36.154  43.199  16.597 -0.27 -0.06    +0.167 A  ATOM     15  N   UNL     1      35.342  45.168  16.902 -0.16 +0.14    -0.241 N  ATOM     16  N   UNL     1      34.900  43.229  16.064 -0.34 +0.06    -0.138 NA ATOM     17  N   UNL     1      34.409  44.444  16.247 -0.28 +0.04    -0.067 NA BRANCH  15  18ATOM     18  C   UNL     1      35.042  46.541  17.238 -0.25 -0.19    +0.175 C  BRANCH  18  19ATOM     19  C   UNL     1      34.047  46.630  18.383 -0.46 -0.14    +0.179 C  BRANCH  19  20ATOM     20  O   UNL     1      33.998  45.389  19.085 -0.26 +0.16    -0.394 OA ATOM     21  H   UNL     1      34.155  44.687  18.429 +0.15 -0.07    +0.210 HD ENDBRANCH  19  20ENDBRANCH  18  19ENDBRANCH  15  18ENDBRANCH   6  13BRANCH   4  22ATOM     22  N   UNL     1      40.750  46.401  16.592 -0.16 +0.03    -0.366 N  ATOM     23  H   UNL     1      41.644  46.392  17.075 -0.25 -0.02    +0.162 HD BRANCH  22  24ATOM     24  C   UNL     1      40.479  47.700  15.995 -0.48 -0.03    +0.150 C  BRANCH  24  25ATOM     25  C   UNL     1      39.225  47.604  15.158 -0.48 +0.01    -0.029 A  ATOM     26  C   UNL     1      38.181  48.521  15.340 -0.52 -0.00    +0.005 A  ATOM     27  C   UNL     1      39.072  46.577  14.214 -0.41 -0.00    +0.005 A  ATOM     28  C   UNL     1      37.013  48.425  14.581 -0.50 -0.00    +0.000 A  ATOM     29  C   UNL     1      37.903  46.482  13.456 -0.44 -0.00    +0.000 A  ATOM     30  C   UNL     1      36.876  47.406  13.638 -0.56 -0.00    +0.000 A  ENDBRANCH  24  25ENDBRANCH  22  24ENDBRANCH   4  22TORSDOF 11TERENDMDL