REMARK SMILES CCCc1cc(F)ccc1Nc1c(C(=O)O)[nH]c2ccccc12
REMARK SMILES IDX 11 1 10 3 4 4 5 5 6 6 9 7 8 8 7 9 3 10 2 11 1 12 12 13 13 14
REMARK SMILES IDX 23 15 17 16 22 17 18 18 21 19 19 20 20 21 14 23 15 24 16 25
REMARK H PARENT 11 2 17 22 16 26
ROOT
ATOM      1  N   UNL     1       0.368   1.657  -0.474  1.00  0.00    -0.353 N 
ATOM      2  H   UNL     1       0.122   2.548  -0.036  1.00  0.00     0.167 HD
ENDROOT
BRANCH   1   3
ATOM      3  C   UNL     1      -0.647   1.268  -1.375  1.00  0.00     0.042 A 
ATOM      4  C   UNL     1      -1.882   0.743  -0.941  1.00  0.00    -0.022 A 
ATOM      5  C   UNL     1      -2.867   0.445  -1.900  1.00  0.00     0.045 A 
ATOM      6  C   UNL     1      -2.638   0.698  -3.248  1.00  0.00     0.123 A 
ATOM      7  C   UNL     1      -0.456   1.551  -2.738  1.00  0.00     0.029 A 
ATOM      8  C   UNL     1      -1.443   1.255  -3.676  1.00  0.00     0.041 A 
ATOM      9  F   UNL     1      -3.591   0.411  -4.144  1.00  0.00    -0.207 F 
BRANCH   4  10
ATOM     10  C   UNL     1      -2.193   0.484   0.516  1.00  0.00     0.037 C 
BRANCH  10  11
ATOM     11  C   UNL     1      -2.077  -0.997   0.883  1.00  0.00     0.001 C 
ATOM     12  C   UNL     1      -2.335  -1.223   2.364  1.00  0.00     0.004 C 
ENDBRANCH  10  11
ENDBRANCH   4  10
ENDBRANCH   1   3
BRANCH   1  13
ATOM     13  C   UNL     1       1.225   0.844   0.202  1.00  0.00     0.079 A 
ATOM     14  C   UNL     1       1.851   1.214   1.379  1.00  0.00     0.149 A 
ATOM     15  C   UNL     1       1.662  -0.475  -0.142  1.00  0.00     0.024 A 
ATOM     16  N   UNL     1       2.639   0.153   1.758  1.00  0.00    -0.347 N 
ATOM     17  C   UNL     1       1.410  -1.374  -1.202  1.00  0.00     0.012 A 
ATOM     18  C   UNL     1       2.544  -0.882   0.861  1.00  0.00     0.048 A 
ATOM     19  C   UNL     1       2.028  -2.629  -1.215  1.00  0.00     0.001 A 
ATOM     20  C   UNL     1       3.173  -2.133   0.865  1.00  0.00     0.027 A 
ATOM     21  C   UNL     1       2.897  -3.002  -0.194  1.00  0.00     0.002 A 
ATOM     22  H   UNL     1       3.212   0.152   2.591  1.00  0.00     0.167 HD
BRANCH  14  23
ATOM     23  C   UNL     1       1.740   2.433   2.120  1.00  0.00     0.354 C 
ATOM     24  O   UNL     1       1.043   3.404   1.870  1.00  0.00    -0.245 OA
BRANCH  23  25
ATOM     25  O   UNL     1       2.531   2.412   3.215  1.00  0.00    -0.477 OA
ATOM     26  H   UNL     1       2.363   3.289   3.620  1.00  0.00     0.297 HD
ENDBRANCH  23  25
ENDBRANCH  14  23
ENDBRANCH   1  13
TORSDOF 6
