MODEL        7USER    Run = 7USERUSER    Estimated Free Energy of Binding    =  -8.98 kcal/mol  [=(1)+(2)+(3)-(4)]USERUSER    (1) Final Intermolecular Energy     = -11.07 kcal/molUSER        vdW + Hbond + desolv Energy     = -10.89 kcal/molUSER        Electrostatic Energy            =  -0.17 kcal/molUSER        Moving Ligand-Fixed Receptor    = -11.07 kcal/molUSER        Moving Ligand-Moving Receptor   =  +0.00 kcal/molUSER    (2) Final Total Internal Energy     =  -1.46 kcal/molUSER    (3) Torsional Free Energy           =  +2.09 kcal/molUSER    (4) Unbound System's Energy         =  -1.46 kcal/molUSERUSERREMARK SMILES CC=C(Br)C=CS(=O)(=O)Nc1cc(-c2cnn(C)c2)ccc1ClREMARK SMILES IDX 6 1 5 2 3 3 4 4 2 5 1 6 7 7 8 8 9 9 10 10 11 12 12 13 22 14REMARK SMILES IDX 13 15 21 16 20 17 23 18 14 19 15 20 19 21 16 22 17 23 18 24REMARK H PARENT 10 11USER                              x       y       z     vdW  Elec       q    TypeUSER                           _______ _______ _______ _____ _____    ______ ____ROOTATOM      1  C   UNL     1      36.260  47.192  14.531 -0.36 -0.10    +0.129 C  ENDROOTBRANCH   1   2ATOM      2  C   UNL     1      35.815  46.003  14.968 -0.42 -0.02    +0.029 C  BRANCH   2   3ATOM      3  C   UNL     1      34.808  45.760  15.996 -0.36 -0.01    +0.014 C  ATOM      4  Br  UNL     1      33.111  45.147  15.469 -0.62 +0.04    -0.051 Br BRANCH   3   5ATOM      5  C   UNL     1      35.112  46.005  17.285 -0.43 +0.01    -0.015 C  ATOM      6  C   UNL     1      34.271  46.674  18.329 -0.57 -0.03    +0.037 C  ENDBRANCH   3   5ENDBRANCH   2   3ENDBRANCH   1   2BRANCH   1   7ATOM      7  S   UNL     1      37.668  47.263  13.527 -0.53 -0.09    +0.255 S  ATOM      8  O   UNL     1      38.413  46.025  13.642 -0.32 +0.05    -0.202 OA ATOM      9  O   UNL     1      37.276  47.732  12.213 -1.17 +0.03    -0.202 OA BRANCH   7  10ATOM     10  N   UNL     1      38.693  48.451  14.192 -0.31 +0.12    -0.279 N  ATOM     11  H   UNL     1      38.143  49.305  14.294 -0.36 -0.13    +0.180 HD BRANCH  10  12ATOM     12  C   UNL     1      39.412  48.088  15.385 -0.48 -0.02    +0.068 A  ATOM     13  C   UNL     1      38.852  47.155  16.268 -0.41 -0.01    +0.037 A  ATOM     14  C   UNL     1      40.670  48.636  15.665 -0.55 -0.01    +0.065 A  ATOM     15  C   UNL     1      39.535  46.755  17.428 -0.44 +0.00    -0.013 A  ATOM     16  C   UNL     1      41.360  48.248  16.813 -0.43 -0.00    +0.023 A  ATOM     17  C   UNL     1      40.796  47.313  17.686 -0.51 -0.00    +0.010 A  ATOM     18  Cl  UNL     1      41.394  49.829  14.649 -0.94 +0.02    -0.082 Cl BRANCH  15  19ATOM     19  C   UNL     1      38.966  45.781  18.347 -0.40 -0.00    +0.020 A  ATOM     20  C   UNL     1      38.009  44.755  18.135 -0.28 -0.03    +0.143 A  ATOM     21  C   UNL     1      39.282  45.655  19.685 -0.28 -0.00    +0.117 A  ATOM     22  N   UNL     1      37.750  44.048  19.238 -0.23 +0.02    -0.181 NA ATOM     23  N   UNL     1      38.532  44.621  20.168 -0.20 +0.01    -0.275 N  ATOM     24  C   UNL     1      38.521  44.111  21.518 -0.28 +0.01    +0.173 C  ENDBRANCH  15  19ENDBRANCH  10  12ENDBRANCH   7  10ENDBRANCH   1   7TORSDOF 7TERENDMDL