REMARK SMILES CN(C)CCC1=CCCNC=C(c2ccccc2C(F)(F)F)N=C1
REMARK SMILES IDX 23 1 24 2 6 3 5 5 4 6 2 7 1 8 3 9 12 10 11 11 10 12 9 14
REMARK SMILES IDX 8 15 7 16 13 18 14 19 18 20 15 21 17 22 16 23 19 24 20 25
REMARK SMILES IDX 21 26 22 27
REMARK H PARENT 10 13
REMARK Flexibility Score:   35.900
ROOT
ATOM      1  N   UNL     1      -1.032   1.058   0.718  1.00  0.00    -0.254 NA
ENDROOT
BRANCH   1   2
ATOM      2  C   UNL     1       0.172   1.249   0.284  1.00  0.00     0.115 C 
BRANCH   2   3
ATOM      3  C   UNL     1       1.127   0.354  -0.425  1.00  0.00    -0.032 CG0
ATOM      4  G   UNL     1       0.622  -0.317  -1.475  1.00  0.00     0.000 G0
BRANCH   3   5
ATOM      5  C   UNL     1       2.396   0.085   0.348  1.00  0.00     0.052 C 
BRANCH   5   6
ATOM      6  C   UNL     1       3.503   1.081  -0.043  1.00  0.00     0.088 C 
BRANCH   6   7
ATOM      7  N   UNL     1       4.791   0.954   0.656  1.00  0.00    -0.309 NA
ATOM      8  C   UNL     1       5.460  -0.317   0.394  1.00  0.00     0.104 C 
ATOM      9  C   UNL     1       4.689   1.208   2.091  1.00  0.00     0.104 C 
ENDBRANCH   6   7
ENDBRANCH   5   6
ENDBRANCH   3   5
ENDBRANCH   2   3
ENDBRANCH   1   2
BRANCH   1  10
ATOM     10  C   UNL     1      -1.836  -0.041   0.525  1.00  0.00     0.086 C 
BRANCH  10  11
ATOM     11  C   UNL     1      -1.574  -1.356   0.354  1.00  0.00     0.107 C 
BRANCH  11  12
ATOM     12  N   UNL     1      -0.404  -2.110   0.339  1.00  0.00    -0.389 N 
ATOM     13  H   UNL     1       0.347  -1.595   0.792  1.00  0.00     0.160 HD
BRANCH  12  14
ATOM     14  C   UNL     1       0.058  -2.702  -0.942  1.00  0.00     0.116 C 
BRANCH  14  15
ATOM     15  C   UNL     1       0.976  -1.750  -1.759  1.00  0.00     0.049 C 
BRANCH  15  16
ATOM     16  C   UNL     1       0.622  -0.317  -1.475  1.00  0.00    -0.020 CG0
ATOM     17  G   UNL     1       1.127   0.354  -0.425  1.00  0.00     0.000 G0
ENDBRANCH  15  16
ENDBRANCH  14  15
ENDBRANCH  12  14
ENDBRANCH  11  12
ENDBRANCH  10  11
BRANCH  10  18
ATOM     18  C   UNL     1      -3.287   0.293   0.544  1.00  0.00     0.014 A 
ATOM     19  C   UNL     1      -3.981   0.145   1.759  1.00  0.00     0.011 A 
ATOM     20  C   UNL     1      -3.971   0.766  -0.593  1.00  0.00     0.065 A 
ATOM     21  C   UNL     1      -5.339   0.449   1.849  1.00  0.00     0.001 A 
ATOM     22  C   UNL     1      -5.343   1.069  -0.482  1.00  0.00     0.014 A 
ATOM     23  C   UNL     1      -6.021   0.910   0.728  1.00  0.00     0.001 A 
BRANCH  20  24
ATOM     24  C   UNL     1      -3.272   0.943  -1.916  1.00  0.00     0.417 C 
ATOM     25  F   UNL     1      -2.723  -0.213  -2.389  1.00  0.00    -0.166 F 
ATOM     26  F   UNL     1      -2.268   1.862  -1.898  1.00  0.00    -0.166 F 
ATOM     27  F   UNL     1      -4.114   1.359  -2.910  1.00  0.00    -0.166 F 
ENDBRANCH  20  24
ENDBRANCH  10  18
ENDBRANCH   1  10
TORSDOF 5
