MODEL        2USER    Run = 2USERUSER    Estimated Free Energy of Binding    =  -4.10 kcal/mol  [=(1)+(2)+(3)-(4)]USERUSER    (1) Final Intermolecular Energy     =  -7.98 kcal/molUSER        vdW + Hbond + desolv Energy     =  -8.42 kcal/molUSER        Electrostatic Energy            =  +0.13 kcal/molUSER        Moving Ligand-Fixed Receptor    =  -8.29 kcal/molUSER        Moving Ligand-Moving Receptor   =  +0.31 kcal/molUSER    (2) Final Total Internal Energy     =  -1.51 kcal/molUSER    (3) Torsional Free Energy           =  +3.88 kcal/molUSER    (4) Unbound System's Energy         =  -1.51 kcal/molUSERUSERREMARK SMILES CN(C)CCC1=CCCNC=C(c2ccccc2C(F)(F)F)N=C1REMARK SMILES IDX 23 1 24 2 6 3 5 5 4 6 2 7 1 8 3 9 12 10 11 11 10 12 9 14REMARK SMILES IDX 8 15 7 16 13 18 14 19 18 20 15 21 17 22 16 23 19 24 20 25REMARK SMILES IDX 21 26 22 27REMARK H PARENT 10 13REMARK Flexibility Score:   35.900USER                              x       y       z     vdW  Elec       q    TypeUSER                           _______ _______ _______ _____ _____    ______ ____ROOTATOM      1  N   UNL     1      36.648  47.264  16.142 -0.21 +0.23    -0.254 NA ENDROOTBRANCH   1   2ATOM      2  C   UNL     1      37.870  47.546  15.821 -0.40 -0.07    +0.115 C  BRANCH   2   3ATOM      3  C   UNL     1      38.805  46.935  14.838 -0.49 +0.01    -0.032 CG0ATOM      4  G   UNL     1      38.239  46.468  13.711 +0.00 +0.00    +0.000 G0 BRANCH   3   5ATOM      5  C   UNL     1      40.171  46.631  15.406 -0.49 -0.01    +0.052 C  BRANCH   5   6ATOM      6  C   UNL     1      40.878  47.920  15.864 -0.49 -0.01    +0.088 C  BRANCH   6   7ATOM      7  N   UNL     1      40.701  49.112  15.021 -0.36 +0.08    -0.309 NA ATOM      8  C   UNL     1      41.713  49.227  13.975 -0.45 -0.01    +0.104 C  ATOM      9  C   UNL     1      40.603  50.348  15.795 -0.40 -0.04    +0.104 C  ENDBRANCH   6   7ENDBRANCH   5   6ENDBRANCH   3   5ENDBRANCH   2   3ENDBRANCH   1   2BRANCH   1  10ATOM     10  C   UNL     1      35.768  46.441  15.479 -0.35 -0.08    +0.086 C  BRANCH  10  11ATOM     11  C   UNL     1      34.985  46.615  14.392 -0.23 -0.11    +0.107 C  BRANCH  11  12ATOM     12  N   UNL     1      35.152  47.285  13.183 -0.10 +0.30    -0.389 N  ATOM     13  H   UNL     1      34.261  47.348  12.695 -0.27 -0.17    +0.160 HD BRANCH  12  14ATOM     14  C   UNL     1      36.232  46.853  12.260 -0.66 -0.06    +0.116 C  BRANCH  14  15ATOM     15  C   UNL     1      37.636  47.374  12.677 -0.53 -0.01    +0.049 C  BRANCH  15  16ATOM     16  C   UNL     1      38.239  46.468  13.713 -0.44 +0.01    -0.020 CG0ATOM     17  G   UNL     1      38.804  46.939  14.839 +0.00 +0.00    +0.000 G0 ENDBRANCH  15  16ENDBRANCH  14  15ENDBRANCH  12  14ENDBRANCH  11  12ENDBRANCH  10  11BRANCH  10  18ATOM     18  C   UNL     1      35.698  45.075  16.068 -0.32 -0.01    +0.014 A  ATOM     19  C   UNL     1      36.446  44.054  15.454 -0.38 -0.00    +0.011 A  ATOM     20  C   UNL     1      34.935  44.783  17.216 -0.27 -0.03    +0.065 A  ATOM     21  C   UNL     1      36.432  42.754  15.959 -0.33 -0.00    +0.001 A  ATOM     22  C   UNL     1      34.935  43.463  17.712 -0.32 -0.00    +0.014 A  ATOM     23  C   UNL     1      35.676  42.458  17.088 -0.32 -0.00    +0.001 A  BRANCH  20  24ATOM     24  C   UNL     1      34.119  45.842  17.910 -0.20 -0.29    +0.417 C  ATOM     25  F   UNL     1      33.719  45.473  19.162 -0.16 +0.07    -0.166 F  ATOM     26  F   UNL     1      32.990  46.204  17.241 -0.06 +0.17    -0.166 F  ATOM     27  F   UNL     1      34.809  47.007  18.096 -0.19 +0.16    -0.166 F  ENDBRANCH  20  24ENDBRANCH  10  18ENDBRANCH   1  10TORSDOF 5TERENDMDL