REMARK SMILES CC=C(Br)C=CS(=O)(=O)Nc1cc(-c2cnn(C)c2)ccc1Cl
REMARK SMILES IDX 6 1 5 2 3 3 4 4 2 5 1 6 7 7 8 8 9 9 10 10 11 12 12 13 22 14
REMARK SMILES IDX 13 15 21 16 20 17 23 18 14 19 15 20 19 21 16 22 17 23 18 24
REMARK H PARENT 10 11
ROOT
ATOM      1  C   UNL     1       2.433  -0.671   1.071  1.00  0.00     0.129 C 
ENDROOT
BRANCH   1   2
ATOM      2  C   UNL     1       3.686  -0.351   0.711  1.00  0.00     0.029 C 
BRANCH   2   3
ATOM      3  C   UNL     1       4.527   0.699   1.278  1.00  0.00     0.014 C 
ATOM      4  Br  UNL     1       3.780   1.862   2.553  1.00  0.00    -0.051 Br
BRANCH   3   5
ATOM      5  C   UNL     1       5.800   0.822   0.856  1.00  0.00    -0.015 C 
ATOM      6  C   UNL     1       6.830   1.822   1.283  1.00  0.00     0.037 C 
ENDBRANCH   3   5
ENDBRANCH   2   3
ENDBRANCH   1   2
BRANCH   1   7
ATOM      7  S   UNL     1       1.605  -1.946   0.244  1.00  0.00     0.255 S 
ATOM      8  O   UNL     1       2.553  -2.965  -0.159  1.00  0.00    -0.202 OA
ATOM      9  O   UNL     1       0.447  -2.329   1.026  1.00  0.00    -0.202 OA
BRANCH   7  10
ATOM     10  N   UNL     1       1.021  -1.292  -1.218  1.00  0.00    -0.279 N 
ATOM     11  H   UNL     1       0.707  -2.072  -1.796  1.00  0.00     0.180 HD
BRANCH  10  12
ATOM     12  C   UNL     1       0.051  -0.234  -1.108  1.00  0.00     0.068 A 
ATOM     13  C   UNL     1      -1.274  -0.547  -0.777  1.00  0.00     0.037 A 
ATOM     14  C   UNL     1       0.417   1.104  -1.306  1.00  0.00     0.065 A 
ATOM     15  C   UNL     1      -2.242   0.460  -0.635  1.00  0.00    -0.013 A 
ATOM     16  C   UNL     1      -0.534   2.114  -1.167  1.00  0.00     0.023 A 
ATOM     17  C   UNL     1      -1.853   1.793  -0.832  1.00  0.00     0.010 A 
ATOM     18  Cl  UNL     1       2.018   1.555  -1.768  1.00  0.00    -0.082 Cl
BRANCH  15  19
ATOM     19  C   UNL     1      -3.619   0.146  -0.283  1.00  0.00     0.020 A 
ATOM     20  C   UNL     1      -4.653   0.966   0.237  1.00  0.00     0.143 A 
ATOM     21  C   UNL     1      -4.221  -1.090  -0.410  1.00  0.00     0.117 A 
ATOM     22  N   UNL     1      -5.800   0.307   0.417  1.00  0.00    -0.181 NA
ATOM     23  N   UNL     1      -5.508  -0.944   0.023  1.00  0.00    -0.275 N 
ATOM     24  C   UNL     1      -6.528  -1.963   0.076  1.00  0.00     0.173 C 
ENDBRANCH  15  19
ENDBRANCH  10  12
ENDBRANCH   7  10
ENDBRANCH   1   7
TORSDOF 7
