MODEL        8USER    Run = 8USERUSER    Estimated Free Energy of Binding    =  -7.70 kcal/mol  [=(1)+(2)+(3)-(4)]USERUSER    (1) Final Intermolecular Energy     = -10.39 kcal/molUSER        vdW + Hbond + desolv Energy     = -10.78 kcal/molUSER        Electrostatic Energy            =  +0.01 kcal/molUSER        Moving Ligand-Fixed Receptor    = -10.76 kcal/molUSER        Moving Ligand-Moving Receptor   =  +0.38 kcal/molUSER    (2) Final Total Internal Energy     =  -1.13 kcal/molUSER    (3) Torsional Free Energy           =  +2.68 kcal/molUSER    (4) Unbound System's Energy         =  -1.13 kcal/molUSERUSERREMARK SMILES O=S1(=O)CC=CC=C(F)Cc2c(cc(Cl)nc2-c2ccccc2)N1REMARK SMILES IDX 11 1 12 2 13 3 14 4 15 5 16 6 17 7 24 8 2 10 1 11 3 12 4 13REMARK SMILES IDX 5 14 10 16 8 17 9 18 7 19 6 20 18 22 19 23 23 24 20 25 22 26REMARK SMILES IDX 21 27REMARK H PARENT 24 9REMARK Flexibility Score:   15.900USER                              x       y       z     vdW  Elec       q    TypeUSER                           _______ _______ _______ _____ _____    ______ ____ROOTATOM      1  C   UNL     1      39.762  46.933  16.000 -0.47 -0.00    +0.009 A  ATOM      2  C   UNL     1      39.516  47.542  14.757 -0.45 -0.01    +0.057 A  ATOM      3  C   UNL     1      40.128  48.741  14.416 -0.40 -0.02    +0.068 A  ATOM      4  C   UNL     1      41.010  49.278  15.324 -0.54 -0.03    +0.131 A  ATOM      5  Cl  UNL     1      41.837  50.742  14.990 -0.78 +0.01    -0.062 Cl ATOM      6  N   UNL     1      41.297  48.735  16.519 -0.83 +0.01    -0.236 NA ATOM      7  C   UNL     1      40.667  47.582  16.856 -0.48 -0.01    +0.078 A  ENDROOTBRANCH   2   8ATOM      8  N   UNL     1      38.596  46.932  13.846 -0.25 +0.07    -0.283 N  ATOM      9  H   UNL     1      38.598  45.909  13.842 +0.13 -0.04    +0.180 HD BRANCH   8  10ATOM     10  S   UNL     1      36.994  47.481  13.821 -0.56 -0.12    +0.236 S  ATOM     11  O   UNL     1      36.874  48.538  12.838 -0.95 +0.06    -0.206 OA ATOM     12  O   UNL     1      36.678  47.745  15.210 -0.36 +0.19    -0.206 OA BRANCH  10  13ATOM     13  C   UNL     1      36.057  46.023  13.304 -0.42 -0.10    +0.187 C  BRANCH  13  14ATOM     14  C   UNL     1      36.567  44.799  14.013 -0.44 +0.00    -0.009 CG0ATOM     15  G   UNL     1      36.312  44.400  15.268 +0.00 +0.00    +0.000 G0 ENDBRANCH  13  14ENDBRANCH  10  13ENDBRANCH   8  10ENDBRANCH   2   8BRANCH   1  16ATOM     16  C   UNL     1      39.076  45.643  16.391 -0.25 -0.02    +0.107 C  BRANCH  16  17ATOM     17  C   UNL     1      37.670  45.715  16.928 -0.36 -0.04    +0.104 C  ATOM     18  F   UNL     1      37.526  46.464  18.052 +0.06 +0.07    -0.211 F  BRANCH  17  19ATOM     19  C   UNL     1      36.540  45.139  16.486 -0.38 -0.01    +0.034 C  BRANCH  19  20ATOM     20  C   UNL     1      36.311  44.400  15.271 -0.44 +0.00    -0.001 CG0ATOM     21  G   UNL     1      36.567  44.799  14.017 +0.00 +0.00    +0.000 G0 ENDBRANCH  19  20ENDBRANCH  17  19ENDBRANCH  16  17ENDBRANCH   1  16BRANCH   7  22ATOM     22  C   UNL     1      41.033  47.089  18.192 -0.51 -0.00    +0.001 A  ATOM     23  C   UNL     1      42.281  47.383  18.763 -0.55 +0.00    +0.010 A  ATOM     24  C   UNL     1      40.141  46.284  18.920 -0.40 -0.00    +0.010 A  ATOM     25  C   UNL     1      42.614  46.914  20.037 -0.45 +0.00    +0.001 A  ATOM     26  C   UNL     1      40.473  45.815  20.193 -0.36 +0.00    +0.001 A  ATOM     27  C   UNL     1      41.707  46.134  20.753 -0.35 +0.00    +0.000 A  ENDBRANCH   7  22TORSDOF 1TERENDMDL