REMARK SMILES C[C@@H](Oc1cc(C#N)ccc1C(=O)c1ccc(CN2CCN(c3nc4ccccc4[nH]3)CC2)cc1)C(=O)O
REMARK SMILES IDX 4 1 5 2 6 3 9 4 10 5 11 6 3 7 2 8 1 9 36 10 37 11 38 12
REMARK SMILES IDX 12 14 13 15 14 16 15 17 35 18 16 19 34 20 17 21 18 22 19 23
REMARK SMILES IDX 20 24 33 25 21 26 32 27 22 28 23 29 24 30 31 31 25 32 30 33
REMARK SMILES IDX 26 34 29 35 27 36 28 37 7 39 8 40
REMARK H PARENT 38 13 31 38
ROOT
ATOM      1  C   UNL     1      -5.405  -0.570  -0.227  1.00  0.00     0.133 A 
ATOM      2  C   UNL     1      -6.346  -0.987  -1.175  1.00  0.00     0.066 A 
ATOM      3  C   UNL     1      -7.327  -1.937  -0.833  1.00  0.00     0.056 A 
ATOM      4  C   UNL     1      -7.375  -2.472   0.457  1.00  0.00     0.020 A 
ATOM      5  C   UNL     1      -6.430  -2.075   1.404  1.00  0.00     0.017 A 
ATOM      6  C   UNL     1      -5.438  -1.149   1.052  1.00  0.00     0.065 A 
ENDROOT
BRANCH   1   7
ATOM      7  O   UNL     1      -4.436   0.372  -0.458  1.00  0.00    -0.478 OA
BRANCH   7   8
ATOM      8  C   UNL     1      -4.656   1.359  -1.468  1.00  0.00     0.279 C 
ATOM      9  C   UNL     1      -3.384   2.200  -1.523  1.00  0.00     0.066 C 
BRANCH   8  10
ATOM     10  C   UNL     1      -5.849   2.288  -1.207  1.00  0.00     0.344 C 
ATOM     11  O   UNL     1      -6.555   2.331  -0.212  1.00  0.00    -0.248 OA
BRANCH  10  12
ATOM     12  O   UNL     1      -6.117   3.100  -2.255  1.00  0.00    -0.479 OA
ATOM     13  H   UNL     1      -6.889   3.623  -1.942  1.00  0.00     0.296 HD
ENDBRANCH  10  12
ENDBRANCH   8  10
ENDBRANCH   7   8
ENDBRANCH   1   7
BRANCH   6  14
ATOM     14  C   UNL     1      -4.462  -0.782   2.095  1.00  0.00     0.196 C 
ATOM     15  O   UNL     1      -4.880  -0.214   3.103  1.00  0.00    -0.288 OA
BRANCH  14  16
ATOM     16  C   UNL     1      -3.022  -1.138   1.965  1.00  0.00     0.023 A 
ATOM     17  C   UNL     1      -2.128  -0.615   2.904  1.00  0.00     0.012 A 
ATOM     18  C   UNL     1      -2.545  -2.006   0.975  1.00  0.00     0.012 A 
ATOM     19  C   UNL     1      -0.774  -0.948   2.849  1.00  0.00     0.006 A 
ATOM     20  C   UNL     1      -1.187  -2.337   0.920  1.00  0.00     0.006 A 
ATOM     21  C   UNL     1      -0.288  -1.814   1.859  1.00  0.00    -0.034 A 
BRANCH  21  22
ATOM     22  C   UNL     1       1.183  -2.174   1.827  1.00  0.00     0.120 C 
BRANCH  22  23
ATOM     23  N   UNL     1       2.038  -1.004   1.613  1.00  0.00    -0.296 NA
ATOM     24  C   UNL     1       3.423  -1.216   2.064  1.00  0.00     0.106 C 
ATOM     25  C   UNL     1       1.979  -0.494   0.232  1.00  0.00     0.106 C 
ATOM     26  C   UNL     1       4.539  -0.899   1.040  1.00  0.00     0.135 C 
ATOM     27  C   UNL     1       2.929   0.700   0.005  1.00  0.00     0.135 C 
ATOM     28  N   UNL     1       4.324   0.389   0.374  1.00  0.00    -0.340 N 
BRANCH  28  29
ATOM     29  C   UNL     1       5.299   0.942  -0.398  1.00  0.00     0.203 A 
ATOM     30  N   UNL     1       5.161   1.640  -1.506  1.00  0.00    -0.213 NA
ATOM     31  N   UNL     1       6.628   0.839  -0.063  1.00  0.00    -0.324 N 
ATOM     32  C   UNL     1       6.432   1.973  -1.907  1.00  0.00     0.091 A 
ATOM     33  C   UNL     1       7.376   1.487  -1.010  1.00  0.00     0.067 A 
ATOM     34  C   UNL     1       6.863   2.701  -3.028  1.00  0.00     0.030 A 
ATOM     35  C   UNL     1       8.750   1.690  -1.153  1.00  0.00     0.028 A 
ATOM     36  C   UNL     1       8.238   2.917  -3.200  1.00  0.00     0.002 A 
ATOM     37  C   UNL     1       9.163   2.421  -2.273  1.00  0.00     0.002 A 
ATOM     38  H   UNL     1       6.982   0.409   0.774  1.00  0.00     0.170 HD
ENDBRANCH  28  29
ENDBRANCH  22  23
ENDBRANCH  21  22
ENDBRANCH  14  16
ENDBRANCH   6  14
BRANCH   3  39
ATOM     39  C   UNL     1      -8.286  -2.357  -1.815  1.00  0.00     0.099 C 
ATOM     40  N   UNL     1      -9.052  -2.698  -2.619  1.00  0.00    -0.192 NA
ENDBRANCH   3  39
TORSDOF 10
