REMARK SMILES N#Cc1ccc(C(=O)c2ccc(CN3CCN(c4nc5ccccc5[nH]4)CC3)cc2)c(OCC(=O)O)c1
REMARK SMILES IDX 3 1 4 2 5 3 6 4 31 5 37 6 2 7 1 8 32 9 33 10 34 11 35 12
REMARK SMILES IDX 36 13 7 15 8 16 9 17 10 18 30 19 11 20 29 21 12 22 13 23
REMARK SMILES IDX 14 24 15 25 28 26 16 27 27 28 17 29 18 30 19 31 26 32 20 33
REMARK SMILES IDX 25 34 21 35 24 36 22 37 23 38
REMARK H PARENT 36 14 26 39
ROOT
ATOM      1  C   UNL     1      -7.775   0.643  -1.698  1.00  0.00     0.056 A 
ATOM      2  C   UNL     1      -7.934   1.503  -0.603  1.00  0.00     0.020 A 
ATOM      3  C   UNL     1      -6.969   1.538   0.407  1.00  0.00     0.017 A 
ATOM      4  C   UNL     1      -5.839   0.718   0.321  1.00  0.00     0.065 A 
ATOM      5  C   UNL     1      -5.706  -0.179  -0.746  1.00  0.00     0.132 A 
ATOM      6  C   UNL     1      -6.657  -0.196  -1.770  1.00  0.00     0.066 A 
ENDROOT
BRANCH   1   7
ATOM      7  C   UNL     1      -8.760   0.619  -2.739  1.00  0.00     0.099 C 
ATOM      8  N   UNL     1      -9.561   0.610  -3.578  1.00  0.00    -0.192 NA
ENDBRANCH   1   7
BRANCH   5   9
ATOM      9  O   UNL     1      -4.628  -1.013  -0.861  1.00  0.00    -0.481 OA
BRANCH   9  10
ATOM     10  C   UNL     1      -4.796  -2.208  -0.087  1.00  0.00     0.351 C 
BRANCH  10  11
ATOM     11  C   UNL     1      -5.283  -3.376  -0.928  1.00  0.00     0.341 C 
ATOM     12  O   UNL     1      -5.632  -3.358  -2.097  1.00  0.00    -0.248 OA
BRANCH  11  13
ATOM     13  O   UNL     1      -5.311  -4.531  -0.229  1.00  0.00    -0.479 OA
ATOM     14  H   UNL     1      -5.638  -5.195  -0.873  1.00  0.00     0.296 HD
ENDBRANCH  11  13
ENDBRANCH  10  11
ENDBRANCH   9  10
ENDBRANCH   5   9
BRANCH   4  15
ATOM     15  C   UNL     1      -4.849   0.789   1.411  1.00  0.00     0.196 C 
ATOM     16  O   UNL     1      -5.246   0.546   2.548  1.00  0.00    -0.288 OA
BRANCH  15  17
ATOM     17  C   UNL     1      -3.428   1.159   1.163  1.00  0.00     0.023 A 
ATOM     18  C   UNL     1      -2.987   1.688  -0.055  1.00  0.00     0.012 A 
ATOM     19  C   UNL     1      -2.513   1.004   2.210  1.00  0.00     0.012 A 
ATOM     20  C   UNL     1      -1.642   2.033  -0.228  1.00  0.00     0.006 A 
ATOM     21  C   UNL     1      -1.173   1.359   2.038  1.00  0.00     0.006 A 
ATOM     22  C   UNL     1      -0.717   1.860   0.810  1.00  0.00    -0.034 A 
BRANCH  22  23
ATOM     23  C   UNL     1       0.726   2.290   0.614  1.00  0.00     0.120 C 
BRANCH  23  24
ATOM     24  N   UNL     1       1.712   1.438   1.296  1.00  0.00    -0.296 NA
ATOM     25  C   UNL     1       1.825   0.088   0.705  1.00  0.00     0.106 C 
ATOM     26  C   UNL     1       3.028   2.119   1.340  1.00  0.00     0.106 C 
ATOM     27  C   UNL     1       2.966  -0.119  -0.319  1.00  0.00     0.135 C 
ATOM     28  C   UNL     1       4.240   1.166   1.405  1.00  0.00     0.135 C 
ATOM     29  N   UNL     1       4.262   0.301   0.217  1.00  0.00    -0.340 N 
BRANCH  29  30
ATOM     30  C   UNL     1       5.447  -0.237  -0.158  1.00  0.00     0.203 A 
ATOM     31  N   UNL     1       6.617  -0.068   0.415  1.00  0.00    -0.213 NA
ATOM     32  N   UNL     1       5.570  -1.044  -1.262  1.00  0.00    -0.324 N 
ATOM     33  C   UNL     1       7.514  -0.795  -0.327  1.00  0.00     0.091 A 
ATOM     34  C   UNL     1       6.882  -1.424  -1.389  1.00  0.00     0.067 A 
ATOM     35  C   UNL     1       8.895  -0.963  -0.155  1.00  0.00     0.030 A 
ATOM     36  C   UNL     1       7.549  -2.231  -2.313  1.00  0.00     0.028 A 
ATOM     37  C   UNL     1       9.592  -1.768  -1.066  1.00  0.00     0.002 A 
ATOM     38  C   UNL     1       8.927  -2.391  -2.124  1.00  0.00     0.002 A 
ATOM     39  H   UNL     1       4.822  -1.300  -1.883  1.00  0.00     0.170 HD
ENDBRANCH  29  30
ENDBRANCH  23  24
ENDBRANCH  22  23
ENDBRANCH  15  17
ENDBRANCH   4  15
TORSDOF 10
