MODEL        10USER    Run = 10USERUSER    Estimated Free Energy of Binding    = -10.52 kcal/mol  [=(1)+(2)+(3)-(4)]USERUSER    (1) Final Intermolecular Energy     = -12.61 kcal/molUSER        vdW + Hbond + desolv Energy     = -12.70 kcal/molUSER        Electrostatic Energy            =  +0.09 kcal/molUSER        Moving Ligand-Fixed Receptor    = -12.61 kcal/molUSER        Moving Ligand-Moving Receptor   =  +0.00 kcal/molUSER    (2) Final Total Internal Energy     =  -1.69 kcal/molUSER    (3) Torsional Free Energy           =  +2.09 kcal/molUSER    (4) Unbound System's Energy         =  -1.69 kcal/molUSERUSERREMARK SMILES C[C@H]1CN(Cc2ccc(C(=O)c3ccc(C#N)cc3O)cc2)CCN1c1nc2ccccc2[nH]1REMARK SMILES IDX 6 1 7 2 8 3 9 4 21 5 22 6 5 7 4 8 2 9 3 10 25 11 24 12 23 13REMARK SMILES IDX 1 14 26 15 27 16 34 17 28 18 33 19 29 20 32 21 30 22 31 23REMARK SMILES IDX 10 25 11 26 12 27 13 28 19 29 14 30 18 31 15 32 20 33 16 35REMARK SMILES IDX 17 36REMARK H PARENT 34 24 20 34USER                              x       y       z     vdW  Elec       q    TypeUSER                           _______ _______ _______ _____ _____    ______ ____ROOTATOM      1  C   UNL     1      41.009  45.259  20.051 -0.37 -0.00    -0.034 A  ATOM      2  C   UNL     1      41.835  46.379  19.880 -0.42 +0.00    +0.006 A  ATOM      3  C   UNL     1      41.695  47.197  18.756 -0.49 +0.00    +0.012 A  ATOM      4  C   UNL     1      40.739  46.891  17.782 -0.50 -0.00    +0.023 A  ATOM      5  C   UNL     1      39.899  45.786  17.949 -0.44 -0.00    +0.012 A  ATOM      6  C   UNL     1      40.043  44.970  19.073 -0.43 -0.00    +0.006 A  ENDROOTBRANCH   1   7ATOM      7  C   UNL     1      41.160  44.368  21.269 -0.30 +0.01    +0.120 C  BRANCH   7   8ATOM      8  N   UNL     1      39.895  43.792  21.733 -0.10 -0.01    -0.295 NA ATOM      9  C   UNL     1      38.870  45.540  23.389 -0.29 +0.01    +0.096 C  ATOM     10  C   UNL     1      38.831  44.776  22.029 -0.32 +0.01    +0.109 C  ATOM     11  N   UNL     1      39.173  44.625  24.519 -0.04 -0.01    -0.337 N  ATOM     12  C   UNL     1      40.292  43.692  24.247 -0.16 +0.00    +0.135 C  ATOM     13  C   UNL     1      40.088  42.928  22.920 -0.26 +0.01    +0.106 C  ATOM     14  C   UNL     1      39.841  46.722  23.413 -0.30 +0.00    +0.032 C  BRANCH  11  15ATOM     15  C   UNL     1      38.125  44.079  25.197 -0.14 +0.00    +0.204 A  ATOM     16  N   UNL     1      37.626  42.869  25.095 -0.19 -0.00    -0.213 NA ATOM     17  N   UNL     1      37.486  44.783  26.188 -0.12 +0.02    -0.324 N  ATOM     18  C   UNL     1      36.604  42.806  26.011 -0.34 -0.01    +0.091 A  ATOM     19  C   UNL     1      36.493  44.000  26.713 -0.35 -0.01    +0.067 A  ATOM     20  C   UNL     1      35.724  41.755  26.305 -0.49 -0.01    +0.030 A  ATOM     21  C   UNL     1      35.545  44.218  27.715 -0.47 -0.01    +0.028 A  ATOM     22  C   UNL     1      34.759  41.946  27.302 -0.59 -0.00    +0.002 A  ATOM     23  C   UNL     1      34.674  43.157  27.994 -0.60 -0.00    +0.002 A  ATOM     24  H   UNL     1      37.740  45.708  26.491 +0.08 -0.01    +0.170 HD ENDBRANCH  11  15ENDBRANCH   7   8ENDBRANCH   1   7BRANCH   4  25ATOM     25  C   UNL     1      40.607  47.792  16.616 -0.45 -0.03    +0.196 C  ATOM     26  O   UNL     1      41.368  48.755  16.516 -0.92 +0.00    -0.288 OA BRANCH  25  27ATOM     27  C   UNL     1      39.578  47.589  15.563 -0.47 -0.02    +0.064 A  ATOM     28  C   UNL     1      39.422  46.354  14.917 -0.42 -0.00    +0.017 A  ATOM     29  C   UNL     1      38.768  48.666  15.173 -0.39 -0.07    +0.128 A  ATOM     30  C   UNL     1      38.442  46.195  13.930 -0.36 -0.01    +0.020 A  ATOM     31  C   UNL     1      37.786  48.509  14.195 -0.48 -0.04    +0.066 A  ATOM     32  C   UNL     1      37.619  47.269  13.572 -0.49 -0.02    +0.056 A  BRANCH  29  33ATOM     33  O   UNL     1      38.888  49.920  15.710 +0.12 +0.40    -0.507 OA ATOM     34  H   UNL     1      39.844  50.158  15.710 -0.06 -0.18    +0.293 HD ENDBRANCH  29  33BRANCH  32  35ATOM     35  C   UNL     1      36.616  47.100  12.562 -0.66 -0.04    +0.099 C  ATOM     36  N   UNL     1      35.812  46.956  11.737 -0.49 +0.11    -0.192 NA ENDBRANCH  32  35ENDBRANCH  25  27ENDBRANCH   4  25TORSDOF 7TERENDMDL