REMARK SMILES N#Cc1ccc(C(=O)c2ccc(CN3CCN(c4nc5ccccc5[nH]4)CC3)cc2)c(OCCS(=O)(=O)O)c1
REMARK SMILES IDX 3 1 4 2 5 3 6 4 31 5 39 6 2 7 1 8 32 9 33 10 34 11 35 12
REMARK SMILES IDX 36 13 37 14 38 15 7 17 8 18 9 19 10 20 30 21 11 22 29 23
REMARK SMILES IDX 12 24 13 25 14 26 15 27 28 28 16 29 27 30 17 31 18 32 19 33
REMARK SMILES IDX 26 34 20 35 25 36 21 37 24 38 22 39 23 40
REMARK H PARENT 38 16 26 41
ROOT
ATOM      1  C   UNL     1       6.869  -0.670   2.277  1.00  0.00     0.056 A 
ATOM      2  C   UNL     1       6.229  -1.808   1.776  1.00  0.00     0.020 A 
ATOM      3  C   UNL     1       5.169  -1.672   0.879  1.00  0.00     0.017 A 
ATOM      4  C   UNL     1       4.743  -0.394   0.489  1.00  0.00     0.065 A 
ATOM      5  C   UNL     1       5.394   0.756   0.973  1.00  0.00     0.131 A 
ATOM      6  C   UNL     1       6.451   0.608   1.876  1.00  0.00     0.066 A 
ENDROOT
BRANCH   1   7
ATOM      7  C   UNL     1       7.952  -0.809   3.208  1.00  0.00     0.099 C 
ATOM      8  N   UNL     1       8.822  -0.916   3.968  1.00  0.00    -0.192 NA
ENDBRANCH   1   7
BRANCH   5   9
ATOM      9  O   UNL     1       4.894   1.958   0.561  1.00  0.00    -0.492 OA
BRANCH   9  10
ATOM     10  C   UNL     1       5.707   3.131   0.592  1.00  0.00     0.248 C 
BRANCH  10  11
ATOM     11  C   UNL     1       6.748   3.160  -0.510  1.00  0.00     0.208 C 
BRANCH  11  12
ATOM     12  S   UNL     1       6.027   3.273  -2.140  1.00  0.00     0.268 S 
ATOM     13  O   UNL     1       4.718   3.877  -2.063  1.00  0.00    -0.199 OA
ATOM     14  O   UNL     1       7.050   3.758  -3.042  1.00  0.00    -0.199 OA
BRANCH  12  15
ATOM     15  O   UNL     1       5.837   1.695  -2.422  1.00  0.00    -0.285 OA
ATOM     16  H   UNL     1       4.933   1.398  -2.125  1.00  0.00     0.234 HD
ENDBRANCH  12  15
ENDBRANCH  11  12
ENDBRANCH  10  11
ENDBRANCH   9  10
ENDBRANCH   5   9
BRANCH   4  17
ATOM     17  C   UNL     1       3.659  -0.272  -0.520  1.00  0.00     0.196 C 
ATOM     18  O   UNL     1       3.844   0.439  -1.508  1.00  0.00    -0.288 OA
BRANCH  17  19
ATOM     19  C   UNL     1       2.398  -1.044  -0.389  1.00  0.00     0.023 A 
ATOM     20  C   UNL     1       1.851  -1.359   0.859  1.00  0.00     0.012 A 
ATOM     21  C   UNL     1       1.748  -1.454  -1.557  1.00  0.00     0.012 A 
ATOM     22  C   UNL     1       0.675  -2.111   0.933  1.00  0.00     0.006 A 
ATOM     23  C   UNL     1       0.577  -2.211  -1.479  1.00  0.00     0.006 A 
ATOM     24  C   UNL     1       0.028  -2.552  -0.234  1.00  0.00    -0.034 A 
BRANCH  24  25
ATOM     25  C   UNL     1      -1.222  -3.405  -0.149  1.00  0.00     0.120 C 
BRANCH  25  26
ATOM     26  N   UNL     1      -2.494  -2.698  -0.089  1.00  0.00    -0.296 NA
ATOM     27  C   UNL     1      -2.961  -2.069  -1.330  1.00  0.00     0.106 C 
ATOM     28  C   UNL     1      -2.735  -1.887   1.106  1.00  0.00     0.106 C 
ATOM     29  C   UNL     1      -3.464  -0.606  -1.206  1.00  0.00     0.135 C 
ATOM     30  C   UNL     1      -4.159  -1.290   1.099  1.00  0.00     0.135 C 
ATOM     31  N   UNL     1      -4.375  -0.424  -0.073  1.00  0.00    -0.340 N 
BRANCH  31  32
ATOM     32  C   UNL     1      -5.577   0.200  -0.162  1.00  0.00     0.203 A 
ATOM     33  N   UNL     1      -6.594   0.086   0.665  1.00  0.00    -0.213 NA
ATOM     34  N   UNL     1      -5.865   1.108  -1.151  1.00  0.00    -0.324 N 
ATOM     35  C   UNL     1      -7.581   0.899   0.166  1.00  0.00     0.091 A 
ATOM     36  C   UNL     1      -7.152   1.552  -0.983  1.00  0.00     0.067 A 
ATOM     37  C   UNL     1      -8.878   1.134   0.644  1.00  0.00     0.030 A 
ATOM     38  C   UNL     1      -7.951   2.442  -1.705  1.00  0.00     0.028 A 
ATOM     39  C   UNL     1      -9.703   2.020  -0.061  1.00  0.00     0.002 A 
ATOM     40  C   UNL     1      -9.245   2.660  -1.216  1.00  0.00     0.002 A 
ATOM     41  H   UNL     1      -5.229   1.408  -1.870  1.00  0.00     0.170 HD
ENDBRANCH  31  32
ENDBRANCH  25  26
ENDBRANCH  24  25
ENDBRANCH  17  19
ENDBRANCH   4  17
TORSDOF 11
