MODEL        8USER    Run = 8USERUSER    Estimated Free Energy of Binding    = -10.97 kcal/mol  [=(1)+(2)+(3)-(4)]USERUSER    (1) Final Intermolecular Energy     = -13.95 kcal/molUSER        vdW + Hbond + desolv Energy     = -13.81 kcal/molUSER        Electrostatic Energy            =  -0.14 kcal/molUSER        Moving Ligand-Fixed Receptor    = -13.95 kcal/molUSER        Moving Ligand-Moving Receptor   =  +0.00 kcal/molUSER    (2) Final Total Internal Energy     =  -1.44 kcal/molUSER    (3) Torsional Free Energy           =  +2.98 kcal/molUSER    (4) Unbound System's Energy         =  -1.44 kcal/molUSERUSERREMARK SMILES N#Cc1ccc(C(=O)c2ccc(CN3CCN(c4nc5ccccc5[nH]4)CC3)cc2)c(OCC(=O)O)c1REMARK SMILES IDX 3 1 4 2 5 3 6 4 31 5 37 6 2 7 1 8 32 9 33 10 34 11 35 12REMARK SMILES IDX 36 13 7 15 8 16 9 17 10 18 30 19 11 20 29 21 12 22 13 23REMARK SMILES IDX 14 24 15 25 28 26 16 27 27 28 17 29 18 30 19 31 26 32 20 33REMARK SMILES IDX 25 34 21 35 24 36 22 37 23 38REMARK H PARENT 36 14 26 39USER                              x       y       z     vdW  Elec       q    TypeUSER                           _______ _______ _______ _____ _____    ______ ____ROOTATOM      1  C   UNL     1      38.559  47.758  14.378 -0.47 -0.02    +0.056 A  ATOM      2  C   UNL     1      38.249  47.015  15.526 -0.41 -0.01    +0.020 A  ATOM      3  C   UNL     1      39.112  47.031  16.625 -0.44 -0.01    +0.017 A  ATOM      4  C   UNL     1      40.283  47.794  16.582 -0.48 -0.01    +0.065 A  ATOM      5  C   UNL     1      40.619  48.494  15.417 -0.48 -0.03    +0.132 A  ATOM      6  C   UNL     1      39.744  48.501  14.326 -0.39 -0.02    +0.066 A  ENDROOTBRANCH   1   7ATOM      7  C   UNL     1      37.666  47.751  13.257 -0.49 -0.03    +0.099 C  ATOM      8  N   UNL     1      36.951  47.738  12.344 -1.10 +0.05    -0.192 NA ENDBRANCH   1   7BRANCH   5   9ATOM      9  O   UNL     1      41.763  49.238  15.323 -0.62 -0.01    -0.481 OA BRANCH   9  10ATOM     10  C   UNL     1      41.553  50.444  14.576 -0.32 -0.10    +0.351 C  BRANCH  10  11ATOM     11  C   UNL     1      42.232  50.406  13.217 -0.41 -0.10    +0.341 C  ATOM     12  O   UNL     1      41.972  51.082  12.235 -0.41 +0.13    -0.248 OA BRANCH  11  13ATOM     13  O   UNL     1      43.223  49.490  13.167 -0.29 +0.10    -0.479 OA ATOM     14  H   UNL     1      43.557  49.445  14.089 -0.12 -0.02    +0.296 HD ENDBRANCH  11  13ENDBRANCH  10  11ENDBRANCH   9  10ENDBRANCH   5   9BRANCH   4  15ATOM     15  C   UNL     1      41.162  47.778  17.765 -0.40 -0.02    +0.196 C  ATOM     16  O   UNL     1      41.920  48.734  17.916 -0.55 -0.02    -0.288 OA BRANCH  15  17ATOM     17  C   UNL     1      41.159  46.648  18.735 -0.48 -0.00    +0.023 A  ATOM     18  C   UNL     1      40.293  45.556  18.618 -0.45 -0.00    +0.012 A  ATOM     19  C   UNL     1      42.090  46.671  19.779 -0.44 +0.00    +0.012 A  ATOM     20  C   UNL     1      40.343  44.513  19.550 -0.38 +0.00    +0.006 A  ATOM     21  C   UNL     1      42.146  45.624  20.702 -0.31 +0.00    +0.006 A  ATOM     22  C   UNL     1      41.260  44.541  20.610 -0.33 -0.00    -0.034 A  BRANCH  22  23ATOM     23  C   UNL     1      41.329  43.373  21.578 -0.27 +0.01    +0.120 C  BRANCH  23  24ATOM     24  N   UNL     1      40.262  43.357  22.589 -0.12 -0.01    -0.296 NA ATOM     25  C   UNL     1      40.738  43.693  23.947 -0.17 +0.00    +0.106 C  ATOM     26  C   UNL     1      39.153  44.248  22.171 -0.27 +0.00    +0.106 C  ATOM     27  C   UNL     1      40.569  45.166  24.388 -0.11 +0.01    +0.135 C  ATOM     28  C   UNL     1      38.327  44.832  23.337 -0.28 +0.01    +0.135 C  ATOM     29  N   UNL     1      39.193  45.633  24.213 -0.07 -0.02    -0.340 N  BRANCH  29  30ATOM     30  C   UNL     1      38.616  46.593  24.975 -0.18 +0.02    +0.203 A  ATOM     31  N   UNL     1      37.337  46.878  25.066 -0.76 -0.04    -0.213 NA ATOM     32  N   UNL     1      39.350  47.445  25.762 -0.09 -0.02    -0.324 N  ATOM     33  C   UNL     1      37.241  47.928  25.943 -0.35 -0.00    +0.091 A  ATOM     34  C   UNL     1      38.494  48.306  26.401 -0.25 +0.00    +0.067 A  ATOM     35  C   UNL     1      36.109  48.620  26.398 -0.40 -0.00    +0.030 A  ATOM     36  C   UNL     1      38.701  49.350  27.305 -0.22 +0.00    +0.028 A  ATOM     37  C   UNL     1      36.285  49.672  27.306 -0.32 +0.00    +0.002 A  ATOM     38  C   UNL     1      37.560  50.027  27.751 -0.23 +0.00    +0.002 A  ATOM     39  H   UNL     1      40.352  47.447  25.842 +0.07 +0.01    +0.170 HD ENDBRANCH  29  30ENDBRANCH  23  24ENDBRANCH  22  23ENDBRANCH  15  17ENDBRANCH   4  15TORSDOF 10TERENDMDL