MODEL        8USER    Run = 8USERUSER    Estimated Free Energy of Binding    = -10.48 kcal/mol  [=(1)+(2)+(3)-(4)]USERUSER    (1) Final Intermolecular Energy     = -13.46 kcal/molUSER        vdW + Hbond + desolv Energy     = -13.24 kcal/molUSER        Electrostatic Energy            =  -0.22 kcal/molUSER        Moving Ligand-Fixed Receptor    = -13.46 kcal/molUSER        Moving Ligand-Moving Receptor   =  +0.00 kcal/molUSER    (2) Final Total Internal Energy     =  -2.95 kcal/molUSER    (3) Torsional Free Energy           =  +2.98 kcal/molUSER    (4) Unbound System's Energy         =  -2.95 kcal/molUSERUSERREMARK SMILES C[C@@H](Oc1cc(C#N)ccc1C(=O)c1ccc(CN2CCN(c3nc4ccccc4[nH]3)CC2)cc1)C(=O)OREMARK SMILES IDX 4 1 5 2 6 3 9 4 10 5 11 6 3 7 2 8 1 9 36 10 37 11 38 12REMARK SMILES IDX 12 14 13 15 14 16 15 17 35 18 16 19 34 20 17 21 18 22 19 23REMARK SMILES IDX 20 24 33 25 21 26 32 27 22 28 23 29 24 30 31 31 25 32 30 33REMARK SMILES IDX 26 34 29 35 27 36 28 37 7 39 8 40REMARK H PARENT 38 13 31 38USER                              x       y       z     vdW  Elec       q    TypeUSER                           _______ _______ _______ _____ _____    ______ ____ROOTATOM      1  C   UNL     1      35.796  45.713  15.243 -0.27 -0.09    +0.133 A  ATOM      2  C   UNL     1      34.448  45.338  15.273 -0.27 -0.05    +0.066 A  ATOM      3  C   UNL     1      33.692  45.495  16.450 -0.25 -0.05    +0.056 A  ATOM      4  C   UNL     1      34.277  46.030  17.600 -0.40 -0.02    +0.020 A  ATOM      5  C   UNL     1      35.625  46.391  17.586 -0.26 -0.01    +0.017 A  ATOM      6  C   UNL     1      36.381  46.208  16.420 -0.33 -0.04    +0.065 A  ENDROOTBRANCH   1   7ATOM      7  O   UNL     1      36.601  45.628  14.136 -0.10 +0.22    -0.478 OA BRANCH   7   8ATOM      8  C   UNL     1      36.150  46.200  12.906 -0.41 -0.14    +0.279 C  ATOM      9  C   UNL     1      36.577  45.231  11.807 -0.52 -0.02    +0.066 C  BRANCH   8  10ATOM     10  C   UNL     1      36.730  47.585  12.593 -0.41 -0.13    +0.344 C  ATOM     11  O   UNL     1      36.194  48.495  11.981 -0.80 +0.11    -0.248 OA BRANCH  10  12ATOM     12  O   UNL     1      37.996  47.735  13.043 -0.67 +0.08    -0.479 OA ATOM     13  H   UNL     1      37.986  47.261  13.905 +0.23 -0.10    +0.296 HD ENDBRANCH  10  12ENDBRANCH   8  10ENDBRANCH   7   8ENDBRANCH   1   7BRANCH   6  14ATOM     14  C   UNL     1      37.803  46.596  16.475 -0.31 -0.09    +0.196 C  ATOM     15  O   UNL     1      38.196  47.462  15.694 -0.27 +0.15    -0.288 OA BRANCH  14  16ATOM     16  C   UNL     1      38.727  46.005  17.482 -0.39 -0.01    +0.023 A  ATOM     17  C   UNL     1      39.892  46.710  17.798 -0.45 -0.00    +0.012 A  ATOM     18  C   UNL     1      38.450  44.806  18.149 -0.38 -0.00    +0.012 A  ATOM     19  C   UNL     1      40.773  46.219  18.763 -0.48 -0.00    +0.006 A  ATOM     20  C   UNL     1      39.334  44.313  19.114 -0.33 -0.00    +0.006 A  ATOM     21  C   UNL     1      40.504  45.017  19.434 -0.40 -0.00    -0.034 A  BRANCH  21  22ATOM     22  C   UNL     1      41.465  44.509  20.488 -0.32 +0.02    +0.120 C  BRANCH  22  23ATOM     23  N   UNL     1      40.905  44.592  21.839 -0.11 -0.02    -0.296 NA ATOM     24  C   UNL     1      39.671  45.392  21.899 -0.30 +0.01    +0.106 C  ATOM     25  C   UNL     1      40.741  43.274  22.475 -0.29 +0.00    +0.106 C  ATOM     26  C   UNL     1      38.449  44.726  22.577 -0.30 +0.01    +0.135 C  ATOM     27  C   UNL     1      40.094  43.371  23.872 -0.19 +0.00    +0.135 C  ATOM     28  N   UNL     1      38.805  44.090  23.849 -0.06 -0.02    -0.340 N  BRANCH  28  29ATOM     29  C   UNL     1      37.838  43.640  24.694 -0.17 +0.01    +0.203 A  ATOM     30  N   UNL     1      37.302  42.438  24.750 -0.25 -0.00    -0.213 NA ATOM     31  N   UNL     1      37.295  44.449  25.663 -0.14 +0.00    -0.324 N  ATOM     32  C   UNL     1      36.375  42.482  25.763 -0.35 -0.01    +0.091 A  ATOM     33  C   UNL     1      36.356  43.736  26.361 -0.35 -0.01    +0.067 A  ATOM     34  C   UNL     1      35.512  41.482  26.240 -0.47 -0.01    +0.030 A  ATOM     35  C   UNL     1      35.524  44.066  27.433 -0.45 -0.01    +0.028 A  ATOM     36  C   UNL     1      34.662  41.785  27.313 -0.58 -0.00    +0.002 A  ATOM     37  C   UNL     1      34.673  43.057  27.899 -0.59 -0.00    +0.002 A  ATOM     38  H   UNL     1      37.588  45.390  25.862 +0.08 -0.00    +0.170 HD ENDBRANCH  28  29ENDBRANCH  22  23ENDBRANCH  21  22ENDBRANCH  14  16ENDBRANCH   6  14BRANCH   3  39ATOM     39  C   UNL     1      32.310  45.106  16.467 -0.31 -0.05    +0.099 C  ATOM     40  N   UNL     1      31.189  44.804  16.476 -0.63 +0.05    -0.192 NA ENDBRANCH   3  39TORSDOF 10TERENDMDL