REMARK SMILES C[C@H]1CN(Cc2ccc(C(=O)c3ccc(C#N)cc3O)cc2)CCN1c1nc2ccccc2[nH]1
REMARK SMILES IDX 6 1 7 2 8 3 9 4 21 5 22 6 5 7 4 8 2 9 3 10 25 11 24 12 23 13
REMARK SMILES IDX 1 14 26 15 27 16 34 17 28 18 33 19 29 20 32 21 30 22 31 23
REMARK SMILES IDX 10 25 11 26 12 27 13 28 19 29 14 30 18 31 15 32 20 33 16 35
REMARK SMILES IDX 17 36
REMARK H PARENT 34 24 20 34
ROOT
ATOM      1  C   UNL     1      -1.385  -0.877   0.693  1.00  0.00    -0.034 A 
ATOM      2  C   UNL     1      -1.834  -1.939  -0.105  1.00  0.00     0.006 A 
ATOM      3  C   UNL     1      -2.977  -1.797  -0.894  1.00  0.00     0.012 A 
ATOM      4  C   UNL     1      -3.695  -0.597  -0.878  1.00  0.00     0.023 A 
ATOM      5  C   UNL     1      -3.249   0.474  -0.098  1.00  0.00     0.012 A 
ATOM      6  C   UNL     1      -2.106   0.328   0.691  1.00  0.00     0.006 A 
ENDROOT
BRANCH   1   7
ATOM      7  C   UNL     1      -0.145  -1.029   1.553  1.00  0.00     0.120 C 
BRANCH   7   8
ATOM      8  N   UNL     1       0.859   0.013   1.321  1.00  0.00    -0.295 NA
ATOM      9  C   UNL     1       2.561  -0.993  -0.393  1.00  0.00     0.096 C 
ATOM     10  C   UNL     1       1.438   0.031  -0.040  1.00  0.00     0.109 C 
ATOM     11  N   UNL     1       3.574  -1.086   0.690  1.00  0.00    -0.337 N 
ATOM     12  C   UNL     1       2.988  -1.183   2.047  1.00  0.00     0.135 C 
ATOM     13  C   UNL     1       1.962  -0.057   2.307  1.00  0.00     0.106 C 
ATOM     14  C   UNL     1       2.045  -2.392  -0.733  1.00  0.00     0.032 C 
BRANCH  11  15
ATOM     15  C   UNL     1       4.680  -0.295   0.599  1.00  0.00     0.204 A 
ATOM     16  N   UNL     1       5.197   0.496   1.510  1.00  0.00    -0.213 NA
ATOM     17  N   UNL     1       5.465  -0.312  -0.528  1.00  0.00    -0.324 N 
ATOM     18  C   UNL     1       6.319   1.044   0.938  1.00  0.00     0.091 A 
ATOM     19  C   UNL     1       6.512   0.552  -0.347  1.00  0.00     0.067 A 
ATOM     20  C   UNL     1       7.233   1.971   1.460  1.00  0.00     0.030 A 
ATOM     21  C   UNL     1       7.581   0.927  -1.163  1.00  0.00     0.028 A 
ATOM     22  C   UNL     1       8.313   2.370   0.663  1.00  0.00     0.002 A 
ATOM     23  C   UNL     1       8.482   1.855  -0.625  1.00  0.00     0.002 A 
ATOM     24  H   UNL     1       5.304  -0.896  -1.331  1.00  0.00     0.170 HD
ENDBRANCH  11  15
ENDBRANCH   7   8
ENDBRANCH   1   7
BRANCH   4  25
ATOM     25  C   UNL     1      -4.890  -0.478  -1.742  1.00  0.00     0.196 C 
ATOM     26  O   UNL     1      -4.851  -0.940  -2.883  1.00  0.00    -0.288 OA
BRANCH  25  27
ATOM     27  C   UNL     1      -6.137   0.194  -1.292  1.00  0.00     0.064 A 
ATOM     28  C   UNL     1      -6.483   0.266   0.065  1.00  0.00     0.017 A 
ATOM     29  C   UNL     1      -7.013   0.735  -2.245  1.00  0.00     0.128 A 
ATOM     30  C   UNL     1      -7.664   0.907   0.457  1.00  0.00     0.020 A 
ATOM     31  C   UNL     1      -8.187   1.381  -1.857  1.00  0.00     0.066 A 
ATOM     32  C   UNL     1      -8.514   1.471  -0.502  1.00  0.00     0.056 A 
BRANCH  29  33
ATOM     33  O   UNL     1      -6.782   0.662  -3.593  1.00  0.00    -0.507 OA
ATOM     34  H   UNL     1      -6.035   0.036  -3.738  1.00  0.00     0.293 HD
ENDBRANCH  29  33
BRANCH  32  35
ATOM     35  C   UNL     1      -9.721   2.128  -0.095  1.00  0.00     0.099 C 
ATOM     36  N   UNL     1     -10.695   2.659   0.247  1.00  0.00    -0.192 NA
ENDBRANCH  32  35
ENDBRANCH  25  27
ENDBRANCH   4  25
TORSDOF 7
