MODEL        4USER    Run = 4USERUSER    Estimated Free Energy of Binding    = -10.73 kcal/mol  [=(1)+(2)+(3)-(4)]USERUSER    (1) Final Intermolecular Energy     = -14.01 kcal/molUSER        vdW + Hbond + desolv Energy     = -13.83 kcal/molUSER        Electrostatic Energy            =  -0.18 kcal/molUSER        Moving Ligand-Fixed Receptor    = -14.01 kcal/molUSER        Moving Ligand-Moving Receptor   =  +0.00 kcal/molUSER    (2) Final Total Internal Energy     =  -2.27 kcal/molUSER    (3) Torsional Free Energy           =  +3.28 kcal/molUSER    (4) Unbound System's Energy         =  -2.27 kcal/molUSERUSERREMARK SMILES N#Cc1ccc(C(=O)c2ccc(CN3CCN(c4nc5ccccc5[nH]4)CC3)cc2)c(OCCS(=O)(=O)O)c1REMARK SMILES IDX 3 1 4 2 5 3 6 4 31 5 39 6 2 7 1 8 32 9 33 10 34 11 35 12REMARK SMILES IDX 36 13 37 14 38 15 7 17 8 18 9 19 10 20 30 21 11 22 29 23REMARK SMILES IDX 12 24 13 25 14 26 15 27 28 28 16 29 27 30 17 31 18 32 19 33REMARK SMILES IDX 26 34 20 35 25 36 21 37 24 38 22 39 23 40REMARK H PARENT 38 16 26 41USER                              x       y       z     vdW  Elec       q    TypeUSER                           _______ _______ _______ _____ _____    ______ ____ROOTATOM      1  C   UNL     1      35.075  44.137  28.141 -0.54 -0.02    +0.056 A  ATOM      2  C   UNL     1      34.787  42.951  27.456 -0.57 -0.00    +0.020 A  ATOM      3  C   UNL     1      35.808  42.260  26.803 -0.51 -0.00    +0.017 A  ATOM      4  C   UNL     1      37.118  42.761  26.827 -0.33 -0.01    +0.065 A  ATOM      5  C   UNL     1      37.420  43.943  27.529 -0.27 -0.02    +0.131 A  ATOM      6  C   UNL     1      36.388  44.630  28.176 -0.38 -0.02    +0.066 A  ENDROOTBRANCH   1   7ATOM      7  C   UNL     1      34.024  44.854  28.804 -0.56 -0.02    +0.099 C  ATOM      8  N   UNL     1      33.167  45.426  29.337 -0.68 -0.01    -0.192 NA ENDBRANCH   1   7BRANCH   5   9ATOM      9  O   UNL     1      38.716  44.369  27.475 -0.05 +0.03    -0.492 OA BRANCH   9  10ATOM     10  C   UNL     1      39.120  45.339  26.509 -0.12 -0.00    +0.248 C  BRANCH  10  11ATOM     11  C   UNL     1      38.593  46.729  26.806 -0.19 -0.01    +0.208 C  BRANCH  11  12ATOM     12  S   UNL     1      37.115  47.120  25.882 -0.34 -0.00    +0.268 S  ATOM     13  O   UNL     1      37.360  48.242  25.007 -0.55 -0.02    -0.199 OA ATOM     14  O   UNL     1      36.551  45.876  25.404 -0.81 -0.01    -0.199 OA BRANCH  12  15ATOM     15  O   UNL     1      36.200  47.631  27.110 -0.22 +0.07    -0.285 OA ATOM     16  H   UNL     1      35.444  46.999  27.262 -0.42 -0.15    +0.234 HD ENDBRANCH  12  15ENDBRANCH  11  12ENDBRANCH  10  11ENDBRANCH   9  10ENDBRANCH   5   9BRANCH   4  17ATOM     17  C   UNL     1      38.203  41.974  26.184 -0.25 -0.01    +0.196 C  ATOM     18  O   UNL     1      38.420  40.829  26.579 -0.29 +0.01    -0.288 OA BRANCH  17  19ATOM     19  C   UNL     1      38.971  42.521  25.038 -0.18 +0.00    +0.023 A  ATOM     20  C   UNL     1      40.346  42.761  25.118 -0.15 +0.00    +0.012 A  ATOM     21  C   UNL     1      38.286  42.791  23.849 -0.29 +0.00    +0.012 A  ATOM     22  C   UNL     1      41.023  43.301  24.020 -0.20 +0.00    +0.006 A  ATOM     23  C   UNL     1      38.964  43.337  22.757 -0.28 +0.00    +0.006 A  ATOM     24  C   UNL     1      40.339  43.602  22.830 -0.24 -0.00    -0.034 A  BRANCH  24  25ATOM     25  C   UNL     1      41.068  44.229  21.658 -0.28 +0.01    +0.120 C  BRANCH  25  26ATOM     26  N   UNL     1      40.288  44.458  20.449 -0.17 -0.01    -0.296 NA ATOM     27  C   UNL     1      41.033  44.550  19.188 -0.37 +0.01    +0.106 C  ATOM     28  C   UNL     1      39.189  45.421  20.553 -0.34 +0.00    +0.106 C  ATOM     29  C   UNL     1      40.661  45.738  18.262 -0.44 -0.00    +0.135 C  ATOM     30  C   UNL     1      38.373  45.482  19.243 -0.24 -0.01    +0.135 C  ATOM     31  N   UNL     1      39.213  45.890  18.104 -0.21 +0.05    -0.340 N  BRANCH  31  32ATOM     32  C   UNL     1      38.593  46.029  16.904 -0.26 -0.06    +0.203 A  ATOM     33  N   UNL     1      38.046  45.078  16.178 -0.20 +0.06    -0.213 NA ATOM     34  N   UNL     1      38.414  47.251  16.304 -0.19 +0.15    -0.324 N  ATOM     35  C   UNL     1      37.550  45.694  15.057 -0.31 -0.04    +0.091 A  ATOM     36  C   UNL     1      37.773  47.065  15.105 -0.38 -0.03    +0.067 A  ATOM     37  C   UNL     1      36.891  45.146  13.947 -0.41 -0.01    +0.030 A  ATOM     38  C   UNL     1      37.375  47.945  14.095 -0.52 -0.01    +0.028 A  ATOM     39  C   UNL     1      36.483  46.004  12.917 -0.56 -0.00    +0.002 A  ATOM     40  C   UNL     1      36.724  47.378  12.992 -0.63 -0.00    +0.002 A  ATOM     41  H   UNL     1      38.693  48.137  16.689 +0.11 -0.10    +0.170 HD ENDBRANCH  31  32ENDBRANCH  25  26ENDBRANCH  24  25ENDBRANCH  17  19ENDBRANCH   4  17TORSDOF 11TERENDMDL