MODEL        2USER    Run = 2USERUSER    Estimated Free Energy of Binding    =  -8.91 kcal/mol  [=(1)+(2)+(3)-(4)]USERUSER    (1) Final Intermolecular Energy     = -11.00 kcal/molUSER        vdW + Hbond + desolv Energy     = -10.96 kcal/molUSER        Electrostatic Energy            =  -0.03 kcal/molUSER        Moving Ligand-Fixed Receptor    = -11.00 kcal/molUSER        Moving Ligand-Moving Receptor   =  +0.00 kcal/molUSER    (2) Final Total Internal Energy     =  -1.74 kcal/molUSER    (3) Torsional Free Energy           =  +2.09 kcal/molUSER    (4) Unbound System's Energy         =  -1.74 kcal/molUSERUSERREMARK SMILES CC(=O)N[C@H]1CN(c2ncc(F)c(-c3ccc4ccccc4c3)n2)CCN1CCCOREMARK SMILES IDX 28 1 27 2 5 3 6 4 7 5 26 6 25 7 4 8 2 9 1 10 3 11 8 13 9 14REMARK SMILES IDX 24 15 10 16 13 17 11 18 12 19 14 20 15 21 23 22 16 23 22 24REMARK SMILES IDX 17 25 21 26 18 27 20 28 19 29 29 30 30 31 31 32REMARK H PARENT 4 12 31 33USER                              x       y       z     vdW  Elec       q    TypeUSER                           _______ _______ _______ _____ _____    ______ ____ROOTATOM      1  C   UNL     1      37.033  42.872  24.272 -0.39 +0.01    +0.089 C  ENDROOTBRANCH   1   2ATOM      2  N   UNL     1      38.264  43.521  23.784 -0.13 -0.02    -0.280 NA ATOM      3  C   UNL     1      38.037  44.961  23.543 -0.26 +0.02    +0.172 C  ATOM      4  C   UNL     1      38.622  45.540  22.204 -0.27 +0.01    +0.161 C  ATOM      5  N   UNL     1      39.956  44.984  21.951 -0.10 -0.02    -0.336 N  ATOM      6  C   UNL     1      38.811  42.860  22.581 -0.28 +0.01    +0.108 C  ATOM      7  C   UNL     1      40.109  43.533  22.067 -0.22 +0.01    +0.135 C  BRANCH   3   8ATOM      8  N   UNL     1      38.682  45.563  24.686 -0.08 -0.02    -0.339 N  ATOM      9  C   UNL     1      38.081  46.592  25.367 -0.24 +0.02    +0.218 C  ATOM     10  C   UNL     1      38.972  47.266  26.374 -0.23 +0.00    +0.114 C  ATOM     11  O   UNL     1      36.921  46.946  25.174 -0.80 -0.06    -0.275 OA ATOM     12  H   UNL     1      39.691  45.532  24.659 +0.07 +0.01    +0.165 HD ENDBRANCH   3   8BRANCH   5  13ATOM     13  C   UNL     1      40.789  45.637  21.070 -0.19 +0.02    +0.226 A  ATOM     14  N   UNL     1      42.047  45.906  21.459 -0.18 -0.04    -0.218 NA ATOM     15  N   UNL     1      40.314  46.000  19.867 -0.25 -0.00    -0.210 NA ATOM     16  C   UNL     1      42.836  46.565  20.590 -0.26 +0.05    +0.156 A  ATOM     17  C   UNL     1      41.123  46.670  19.004 -0.37 +0.00    +0.112 A  ATOM     18  C   UNL     1      42.425  46.970  19.346 -0.39 +0.02    +0.167 A  ATOM     19  F   UNL     1      43.278  47.599  18.528 -0.21 -0.02    -0.203 F  BRANCH  17  20ATOM     20  C   UNL     1      40.503  47.026  17.707 -0.50 -0.00    +0.004 A  ATOM     21  C   UNL     1      41.017  48.083  16.936 -0.53 -0.00    +0.011 A  ATOM     22  C   UNL     1      39.397  46.331  17.180 -0.43 -0.00    +0.019 A  ATOM     23  C   UNL     1      40.453  48.442  15.708 -0.58 -0.00    +0.009 A  ATOM     24  C   UNL     1      38.812  46.677  15.945 -0.41 +0.01    -0.018 A  ATOM     25  C   UNL     1      39.348  47.749  15.201 -0.51 +0.01    -0.018 A  ATOM     26  C   UNL     1      37.705  45.976  15.437 -0.37 -0.00    +0.009 A  ATOM     27  C   UNL     1      38.766  48.093  13.969 -0.46 -0.00    +0.009 A  ATOM     28  C   UNL     1      37.137  46.330  14.211 -0.43 -0.00    +0.001 A  ATOM     29  C   UNL     1      37.667  47.388  13.478 -0.55 -0.00    +0.001 A  ENDBRANCH  17  20ENDBRANCH   5  13ENDBRANCH   1   2BRANCH   1  30ATOM     30  C   UNL     1      36.973  42.720  25.801 -0.40 -0.00    +0.044 C  BRANCH  30  31ATOM     31  C   UNL     1      35.805  43.478  26.432 -0.38 -0.02    +0.157 C  BRANCH  31  32ATOM     32  O   UNL     1      36.214  44.757  26.897 -0.18 +0.09    -0.396 OA ATOM     33  H   UNL     1      35.855  45.397  26.246 -0.44 -0.09    +0.210 HD ENDBRANCH  31  32ENDBRANCH  30  31ENDBRANCH   1  30TORSDOF 7TERENDMDL