REMARK SMILES CC(=O)N[C@H]1CN(c2ncc(F)c(-c3ccc4ccccc4c3)n2)CCN1CCCO
REMARK SMILES IDX 28 1 27 2 5 3 6 4 7 5 26 6 25 7 4 8 2 9 1 10 3 11 8 13 9 14
REMARK SMILES IDX 24 15 10 16 13 17 11 18 12 19 14 20 15 21 23 22 16 23 22 24
REMARK SMILES IDX 17 25 21 26 18 27 20 28 19 29 29 30 30 31 31 32
REMARK H PARENT 4 12 31 33
ROOT
ATOM      1  C   UNL     1      -4.892  -0.522  -1.353  1.00  0.00     0.089 C 
ENDROOT
BRANCH   1   2
ATOM      2  N   UNL     1      -3.763  -0.681  -0.418  1.00  0.00    -0.280 NA
ATOM      3  C   UNL     1      -2.679   0.272  -0.738  1.00  0.00     0.172 C 
ATOM      4  C   UNL     1      -1.220  -0.311  -0.730  1.00  0.00     0.161 C 
ATOM      5  N   UNL     1      -1.044  -1.223   0.405  1.00  0.00    -0.336 N 
ATOM      6  C   UNL     1      -3.256  -2.068  -0.377  1.00  0.00     0.108 C 
ATOM      7  C   UNL     1      -2.073  -2.244   0.608  1.00  0.00     0.135 C 
BRANCH   3   8
ATOM      8  N   UNL     1      -2.839   1.268   0.295  1.00  0.00    -0.339 N 
ATOM      9  C   UNL     1      -2.323   2.530   0.136  1.00  0.00     0.218 C 
ATOM     10  C   UNL     1      -2.361   3.371   1.383  1.00  0.00     0.114 C 
ATOM     11  O   UNL     1      -1.861   2.944  -0.923  1.00  0.00    -0.275 OA
ATOM     12  H   UNL     1      -2.904   0.891   1.230  1.00  0.00     0.165 HD
ENDBRANCH   3   8
BRANCH   5  13
ATOM     13  C   UNL     1       0.234  -1.526   0.820  1.00  0.00     0.226 A 
ATOM     14  N   UNL     1       0.395  -2.487   1.745  1.00  0.00    -0.218 NA
ATOM     15  N   UNL     1       1.268  -0.841   0.306  1.00  0.00    -0.210 NA
ATOM     16  C   UNL     1       1.651  -2.750   2.153  1.00  0.00     0.156 A 
ATOM     17  C   UNL     1       2.529  -1.115   0.733  1.00  0.00     0.112 A 
ATOM     18  C   UNL     1       2.757  -2.094   1.677  1.00  0.00     0.167 A 
ATOM     19  F   UNL     1       3.977  -2.431   2.114  1.00  0.00    -0.203 F 
BRANCH  17  20
ATOM     20  C   UNL     1       3.597  -0.303   0.106  1.00  0.00     0.004 A 
ATOM     21  C   UNL     1       3.430   0.219  -1.189  1.00  0.00     0.011 A 
ATOM     22  C   UNL     1       4.807  -0.004   0.763  1.00  0.00     0.019 A 
ATOM     23  C   UNL     1       4.421   0.989  -1.806  1.00  0.00     0.009 A 
ATOM     24  C   UNL     1       5.819   0.768   0.159  1.00  0.00    -0.018 A 
ATOM     25  C   UNL     1       5.622   1.270  -1.145  1.00  0.00    -0.018 A 
ATOM     26  C   UNL     1       7.022   1.052   0.827  1.00  0.00     0.009 A 
ATOM     27  C   UNL     1       6.630   2.041  -1.748  1.00  0.00     0.009 A 
ATOM     28  C   UNL     1       8.015   1.820   0.215  1.00  0.00     0.001 A 
ATOM     29  C   UNL     1       7.819   2.314  -1.071  1.00  0.00     0.001 A 
ENDBRANCH  17  20
ENDBRANCH   5  13
ENDBRANCH   1   2
BRANCH   1  30
ATOM     30  C   UNL     1      -6.203  -1.158  -0.860  1.00  0.00     0.044 C 
BRANCH  30  31
ATOM     31  C   UNL     1      -6.698  -0.564   0.458  1.00  0.00     0.157 C 
BRANCH  31  32
ATOM     32  O   UNL     1      -5.806  -0.861   1.523  1.00  0.00    -0.396 OA
ATOM     33  H   UNL     1      -4.912  -0.646   1.181  1.00  0.00     0.210 HD
ENDBRANCH  31  32
ENDBRANCH  30  31
ENDBRANCH   1  30
TORSDOF 7
