MODEL        8USER    Run = 8USERUSER    Estimated Free Energy of Binding    = -11.04 kcal/mol  [=(1)+(2)+(3)-(4)]USERUSER    (1) Final Intermolecular Energy     = -14.33 kcal/molUSER        vdW + Hbond + desolv Energy     = -14.22 kcal/molUSER        Electrostatic Energy            =  -0.10 kcal/molUSER        Moving Ligand-Fixed Receptor    = -14.33 kcal/molUSER        Moving Ligand-Moving Receptor   =  +0.00 kcal/molUSER    (2) Final Total Internal Energy     =  -2.95 kcal/molUSER    (3) Torsional Free Energy           =  +3.28 kcal/molUSER    (4) Unbound System's Energy         =  -2.95 kcal/molUSERUSERREMARK SMILES COc1ccc(O)c(C(=O)c2ccc(C(=O)N[C@@H]3CCN(C(=O)CN4CCOCC4)C[C@H]3NC(=O)c3ccncc3)cc2)c1FREMARK SMILES IDX 11 1 12 2 13 3 14 4 42 5 43 6 9 7 10 8 8 9 3 10 4 11 44 12REMARK SMILES IDX 5 13 6 14 45 15 2 16 1 17 7 18 15 20 17 21 16 22 18 24 19 25REMARK SMILES IDX 32 26 20 27 31 28 21 29 33 30 34 31 35 33 36 34 37 35 41 36REMARK SMILES IDX 38 37 40 38 39 39 22 40 23 41 24 42 25 43 26 44 30 45 27 46REMARK SMILES IDX 29 47 28 48REMARK H PARENT 7 19 17 23 33 32USER                              x       y       z     vdW  Elec       q    TypeUSER                           _______ _______ _______ _____ _____    ______ ____ROOTATOM      1  C   UNL     1      38.083  42.843  24.638 -0.29 +0.00    +0.023 A  ATOM      2  C   UNL     1      39.368  42.827  24.083 -0.19 +0.00    +0.013 A  ATOM      3  C   UNL     1      39.609  43.452  22.855 -0.25 +0.00    +0.014 A  ATOM      4  C   UNL     1      38.565  44.097  22.177 -0.30 +0.00    +0.039 A  ATOM      5  C   UNL     1      37.281  44.114  22.734 -0.35 +0.00    +0.014 A  ATOM      6  C   UNL     1      37.039  43.477  23.955 -0.34 +0.00    +0.013 A  ENDROOTBRANCH   1   7ATOM      7  C   UNL     1      37.785  42.206  25.950 -0.26 -0.01    +0.199 C  ATOM      8  O   UNL     1      38.357  41.176  26.290 -0.24 +0.01    -0.288 OA BRANCH   7   9ATOM      9  C   UNL     1      36.762  42.781  26.834 -0.32 -0.02    +0.104 A  ATOM     10  C   UNL     1      35.956  44.698  28.087 -0.37 -0.04    +0.155 A  ATOM     11  C   UNL     1      34.824  43.965  28.453 -0.57 -0.01    +0.053 A  ATOM     12  C   UNL     1      36.922  44.093  27.275 -0.27 -0.03    +0.179 A  ATOM     13  C   UNL     1      34.661  42.645  28.011 -0.45 -0.02    +0.051 A  ATOM     14  C   UNL     1      35.632  42.055  27.203 -0.46 -0.04    +0.130 A  ATOM     15  F   UNL     1      38.016  44.788  26.920 -0.05 +0.02    -0.202 F  BRANCH  10  16ATOM     16  O   UNL     1      36.226  45.985  28.467 -0.18 +0.12    -0.494 OA ATOM     17  C   UNL     1      35.139  46.766  28.949 -0.26 -0.06    +0.278 C  ENDBRANCH  10  16BRANCH  14  18ATOM     18  O   UNL     1      35.495  40.753  26.815 -0.25 +0.23    -0.507 OA ATOM     19  H   UNL     1      36.366  40.390  26.583 -0.30 -0.15    +0.293 HD ENDBRANCH  14  18ENDBRANCH   7   9ENDBRANCH   1   7BRANCH   4  20ATOM     20  C   UNL     1      38.791  44.811  20.894 -0.26 +0.00    +0.251 C  ATOM     21  N   UNL     1      38.363  44.167  19.752 -0.12 +0.02    -0.347 N  ATOM     22  O   UNL     1      39.316  45.918  20.885 -0.23 -0.01    -0.269 OA ATOM     23  H   UNL     1      37.758  43.359  19.837 +0.11 -0.01    +0.164 HD BRANCH  21  24ATOM     24  C   UNL     1      38.506  44.780  18.429 -0.37 -0.01    +0.108 C  ATOM     25  C   UNL     1      39.901  45.403  18.235 -0.47 -0.00    +0.048 C  ATOM     26  C   UNL     1      37.388  45.812  18.162 -0.15 -0.03    +0.124 C  ATOM     27  C   UNL     1      39.899  46.573  17.254 -0.45 -0.02    +0.122 C  ATOM     28  C   UNL     1      37.495  46.319  16.709 -0.33 -0.07    +0.146 C  ATOM     29  N   UNL     1      38.878  46.392  16.229 -0.17 +0.10    -0.339 N  BRANCH  26  30ATOM     30  N   UNL     1      36.065  45.253  18.449 -0.11 +0.10    -0.345 N  ATOM     31  C   UNL     1      35.729  43.977  18.055 -0.20 -0.07    +0.251 C  ATOM     32  H   UNL     1      35.431  45.817  19.000 +0.07 -0.05    +0.164 HD ATOM     33  O   UNL     1      36.464  43.282  17.364 -0.18 +0.07    -0.269 OA BRANCH  31  34ATOM     34  C   UNL     1      34.395  43.469  18.470 -0.32 -0.01    +0.042 A  ATOM     35  C   UNL     1      33.951  42.268  17.916 -0.38 -0.01    +0.034 A  ATOM     36  C   UNL     1      33.596  44.135  19.401 -0.41 -0.01    +0.034 A  ATOM     37  C   UNL     1      32.709  41.794  18.292 -0.31 -0.02    +0.112 A  ATOM     38  C   UNL     1      32.368  43.576  19.712 -0.36 +0.00    +0.112 A  ATOM     39  N   UNL     1      31.905  42.430  19.170 -0.19 +0.01    -0.265 NA ENDBRANCH  31  34ENDBRANCH  26  30BRANCH  29  40ATOM     40  C   UNL     1      39.087  46.451  14.849 -0.32 -0.06    +0.236 C  ATOM     41  O   UNL     1      39.334  45.423  14.214 -0.24 +0.05    -0.273 OA BRANCH  40  42ATOM     42  C   UNL     1      39.006  47.849  14.197 -0.39 -0.06    +0.185 C  BRANCH  42  43ATOM     43  N   UNL     1      37.819  48.035  13.331 -0.68 +0.08    -0.290 NA ATOM     44  C   UNL     1      37.663  46.922  12.363 -0.44 -0.02    +0.113 C  ATOM     45  C   UNL     1      36.583  48.204  14.126 -0.39 -0.08    +0.113 C  ATOM     46  C   UNL     1      36.203  46.745  11.914 -0.59 -0.09    +0.175 C  ATOM     47  C   UNL     1      35.756  46.916  14.258 -0.32 -0.14    +0.175 C  ATOM     48  O   UNL     1      35.333  46.385  12.997 -0.32 +0.24    -0.379 OA ENDBRANCH  42  43ENDBRANCH  40  42ENDBRANCH  29  40ENDBRANCH  21  24ENDBRANCH   4  20TORSDOF 11TERENDMDL