REMARK SMILES COc1ccc(O)c(C(=O)c2ccc(C(=O)N[C@@H]3CCN(Cc4nc(C)cs4)C[C@H]3NC(=O)c3ccncc3)cc2)c1F
REMARK SMILES IDX 11 1 12 2 13 3 14 4 40 5 41 6 9 7 10 8 8 9 3 10 4 11 42 12
REMARK SMILES IDX 5 13 6 14 43 15 2 16 1 17 7 18 15 20 17 21 16 22 18 24 19 25
REMARK SMILES IDX 30 26 20 27 29 28 21 29 31 30 32 31 33 33 34 34 35 35 39 36
REMARK SMILES IDX 36 37 38 38 37 39 22 40 23 41 24 42 28 43 25 44 27 45 26 46
REMARK H PARENT 7 19 17 23 31 32
ROOT
ATOM      1  C   UNL     1       3.974   0.224   1.891  1.00  0.00     0.023 A 
ATOM      2  C   UNL     1       3.903   0.456   0.513  1.00  0.00     0.013 A 
ATOM      3  C   UNL     1       2.663   0.491  -0.130  1.00  0.00     0.014 A 
ATOM      4  C   UNL     1       1.484   0.335   0.607  1.00  0.00     0.039 A 
ATOM      5  C   UNL     1       1.546   0.134   1.988  1.00  0.00     0.014 A 
ATOM      6  C   UNL     1       2.789   0.081   2.626  1.00  0.00     0.013 A 
ENDROOT
BRANCH   1   7
ATOM      7  C   UNL     1       5.270   0.170   2.621  1.00  0.00     0.199 C 
ATOM      8  O   UNL     1       5.307   0.501   3.809  1.00  0.00    -0.288 OA
BRANCH   7   9
ATOM      9  C   UNL     1       6.551  -0.190   1.981  1.00  0.00     0.104 A 
ATOM     10  C   UNL     1       7.858  -1.480   0.380  1.00  0.00     0.155 A 
ATOM     11  C   UNL     1       9.003  -0.767   0.743  1.00  0.00     0.053 A 
ATOM     12  C   UNL     1       6.642  -1.192   1.016  1.00  0.00     0.179 A 
ATOM     13  C   UNL     1       8.931   0.208   1.741  1.00  0.00     0.051 A 
ATOM     14  C   UNL     1       7.716   0.482   2.364  1.00  0.00     0.130 A 
ATOM     15  F   UNL     1       5.550  -1.899   0.678  1.00  0.00    -0.202 F 
BRANCH  10  16
ATOM     16  O   UNL     1       7.804  -2.455  -0.581  1.00  0.00    -0.494 OA
ATOM     17  C   UNL     1       9.011  -2.759  -1.267  1.00  0.00     0.278 C 
ENDBRANCH  10  16
BRANCH  14  18
ATOM     18  O   UNL     1       7.731   1.433   3.351  1.00  0.00    -0.507 OA
ATOM     19  H   UNL     1       6.912   1.325   3.886  1.00  0.00     0.293 HD
ENDBRANCH  14  18
ENDBRANCH   7   9
ENDBRANCH   1   7
BRANCH   4  20
ATOM     20  C   UNL     1       0.196   0.343  -0.129  1.00  0.00     0.251 C 
ATOM     21  N   UNL     1      -0.879   0.917   0.510  1.00  0.00    -0.347 N 
ATOM     22  O   UNL     1       0.128  -0.160  -1.245  1.00  0.00    -0.269 OA
ATOM     23  H   UNL     1      -0.738   1.357   1.409  1.00  0.00     0.164 HD
BRANCH  21  24
ATOM     24  C   UNL     1      -2.203   1.028  -0.121  1.00  0.00     0.107 C 
ATOM     25  C   UNL     1      -3.001   2.175   0.521  1.00  0.00     0.042 C 
ATOM     26  C   UNL     1      -3.019  -0.290  -0.085  1.00  0.00     0.118 C 
ATOM     27  C   UNL     1      -4.517   1.971   0.448  1.00  0.00     0.087 C 
ATOM     28  C   UNL     1      -4.371  -0.086  -0.822  1.00  0.00     0.112 C 
ATOM     29  N   UNL     1      -4.871   1.305  -0.805  1.00  0.00    -0.294 NA
BRANCH  26  30
ATOM     30  N   UNL     1      -2.272  -1.418  -0.635  1.00  0.00    -0.346 N 
ATOM     31  C   UNL     1      -2.666  -2.723  -0.462  1.00  0.00     0.251 C 
ATOM     32  H   UNL     1      -1.392  -1.187  -1.086  1.00  0.00     0.164 HD
ATOM     33  O   UNL     1      -3.738  -3.031   0.045  1.00  0.00    -0.269 OA
BRANCH  31  34
ATOM     34  C   UNL     1      -1.719  -3.792  -0.898  1.00  0.00     0.042 A 
ATOM     35  C   UNL     1      -0.604  -3.556  -1.702  1.00  0.00     0.034 A 
ATOM     36  C   UNL     1      -1.966  -5.094  -0.451  1.00  0.00     0.034 A 
ATOM     37  C   UNL     1       0.226  -4.627  -2.002  1.00  0.00     0.112 A 
ATOM     38  C   UNL     1      -1.078  -6.094  -0.805  1.00  0.00     0.112 A 
ATOM     39  N   UNL     1       0.015  -5.888  -1.567  1.00  0.00    -0.265 NA
ENDBRANCH  31  34
ENDBRANCH  26  30
BRANCH  29  40
ATOM     40  C   UNL     1      -6.332   1.322  -1.049  1.00  0.00     0.152 C 
BRANCH  40  41
ATOM     41  C   UNL     1      -6.854   2.699  -1.397  1.00  0.00     0.107 A 
ATOM     42  N   UNL     1      -7.351   3.556  -0.525  1.00  0.00    -0.245 NA
ATOM     43  S   UNL     1      -6.831   3.251  -3.029  1.00  0.00    -0.126 S 
ATOM     44  C   UNL     1      -7.736   4.725  -1.163  1.00  0.00     0.049 A 
ATOM     45  C   UNL     1      -7.537   4.730  -2.528  1.00  0.00     0.090 A 
ATOM     46  C   UNL     1      -8.320   5.824  -0.353  1.00  0.00     0.067 C 
ENDBRANCH  40  41
ENDBRANCH  29  40
ENDBRANCH  21  24
ENDBRANCH   4  20
TORSDOF 10
