MODEL        10USER    Run = 10USERUSER    Estimated Free Energy of Binding    = -11.54 kcal/mol  [=(1)+(2)+(3)-(4)]USERUSER    (1) Final Intermolecular Energy     = -14.53 kcal/molUSER        vdW + Hbond + desolv Energy     = -14.42 kcal/molUSER        Electrostatic Energy            =  -0.10 kcal/molUSER        Moving Ligand-Fixed Receptor    = -14.53 kcal/molUSER        Moving Ligand-Moving Receptor   =  +0.00 kcal/molUSER    (2) Final Total Internal Energy     =  -2.87 kcal/molUSER    (3) Torsional Free Energy           =  +2.98 kcal/molUSER    (4) Unbound System's Energy         =  -2.87 kcal/molUSERUSERREMARK SMILES COc1ccc(O)c(C(=O)c2ccc(C(=O)N[C@@H]3CCN(Cc4nc(C)cs4)C[C@H]3NC(=O)c3ccncc3)cc2)c1FREMARK SMILES IDX 11 1 12 2 13 3 14 4 40 5 41 6 9 7 10 8 8 9 3 10 4 11 42 12REMARK SMILES IDX 5 13 6 14 43 15 2 16 1 17 7 18 15 20 17 21 16 22 18 24 19 25REMARK SMILES IDX 30 26 20 27 29 28 21 29 31 30 32 31 33 33 34 34 35 35 39 36REMARK SMILES IDX 36 37 38 38 37 39 22 40 23 41 24 42 28 43 25 44 27 45 26 46REMARK H PARENT 7 19 17 23 31 32USER                              x       y       z     vdW  Elec       q    TypeUSER                           _______ _______ _______ _____ _____    ______ ____ROOTATOM      1  C   UNL     1      38.817  46.738  16.537 -0.41 -0.01    +0.023 A  ATOM      2  C   UNL     1      37.760  46.000  17.081 -0.37 -0.00    +0.013 A  ATOM      3  C   UNL     1      37.945  45.272  18.259 -0.37 -0.00    +0.014 A  ATOM      4  C   UNL     1      39.176  45.310  18.923 -0.39 -0.00    +0.039 A  ATOM      5  C   UNL     1      40.227  46.070  18.403 -0.46 -0.00    +0.014 A  ATOM      6  C   UNL     1      40.044  46.782  17.214 -0.48 -0.00    +0.013 A  ENDROOTBRANCH   1   7ATOM      7  C   UNL     1      38.673  47.523  15.281 -0.39 -0.08    +0.199 C  ATOM      8  O   UNL     1      39.253  48.607  15.178 -0.35 +0.13    -0.288 OA BRANCH   7   9ATOM      9  C   UNL     1      37.803  47.114  14.160 -0.40 -0.04    +0.104 A  ATOM     10  C   UNL     1      36.888  45.422  12.666 -0.41 -0.05    +0.155 A  ATOM     11  C   UNL     1      36.065  46.387  12.080 -0.60 -0.03    +0.053 A  ATOM     12  C   UNL     1      37.762  45.801  13.694 -0.28 -0.06    +0.179 A  ATOM     13  C   UNL     1      36.131  47.715  12.510 -0.61 -0.03    +0.051 A  ATOM     14  C   UNL     1      37.005  48.076  13.532 -0.48 -0.06    +0.130 A  ATOM     15  F   UNL     1      38.568  44.872  14.236 -0.00 +0.05    -0.202 F  BRANCH  10  16ATOM     16  O   UNL     1      36.912  44.094  12.331 -0.19 +0.15    -0.494 OA ATOM     17  C   UNL     1      37.268  43.767  10.994 -0.27 -0.08    +0.278 C  ENDBRANCH  10  16BRANCH  14  18ATOM     18  O   UNL     1      37.032  49.401  13.880 -0.14 +0.33    -0.507 OA ATOM     19  H   UNL     1      37.950  49.622  14.156 -0.33 -0.24    +0.293 HD ENDBRANCH  14  18ENDBRANCH   7   9ENDBRANCH   1   7BRANCH   4  20ATOM     20  C   UNL     1      39.332  44.490  20.150 -0.23 -0.00    +0.251 C  ATOM     21  N   UNL     1      38.271  44.476  21.025 -0.15 -0.01    -0.347 N  ATOM     22  O   UNL     1      40.377  43.879  20.346 -0.13 -0.01    -0.269 OA ATOM     23  H   UNL     1      37.422  44.964  20.774 +0.09 +0.00    +0.164 HD BRANCH  21  24ATOM     24  C   UNL     1      38.277  43.674  22.258 -0.32 +0.01    +0.107 C  ATOM     25  C   UNL     1      36.996  42.827  22.344 -0.46 +0.00    +0.042 C  ATOM     26  C   UNL     1      38.459  44.518  23.546 -0.27 +0.01    +0.118 C  ATOM     27  C   UNL     1      36.582  42.503  23.782 -0.38 +0.01    +0.087 C  ATOM     28  C   UNL     1      38.508  43.579  24.782 -0.21 +0.00    +0.112 C  ATOM     29  N   UNL     1      37.770  42.309  24.612 -0.16 -0.01    -0.294 NA BRANCH  26  30ATOM     30  N   UNL     1      39.635  45.381  23.480 -0.06 -0.02    -0.346 N  ATOM     31  C   UNL     1      39.836  46.429  24.346 -0.14 +0.02    +0.251 C  ATOM     32  H   UNL     1      40.262  45.214  22.698 +0.08 +0.01    +0.164 HD ATOM     33  O   UNL     1      39.118  46.633  25.318 -0.13 -0.02    -0.269 OA BRANCH  31  34ATOM     34  C   UNL     1      40.970  47.356  24.055 -0.23 +0.00    +0.042 A  ATOM     35  C   UNL     1      41.784  47.250  22.928 -0.23 +0.00    +0.034 A  ATOM     36  C   UNL     1      41.203  48.394  24.962 -0.29 +0.00    +0.034 A  ATOM     37  C   UNL     1      42.779  48.202  22.746 -0.26 +0.02    +0.112 A  ATOM     38  C   UNL     1      42.220  49.293  24.691 -0.30 +0.03    +0.112 A  ATOM     39  N   UNL     1      43.010  49.221  23.601 -0.81 -0.11    -0.265 NA ENDBRANCH  31  34ENDBRANCH  26  30BRANCH  29  40ATOM     40  C   UNL     1      37.435  41.736  25.937 -0.30 -0.02    +0.152 C  BRANCH  40  41ATOM     41  C   UNL     1      36.494  42.613  26.735 -0.35 -0.02    +0.107 A  ATOM     42  N   UNL     1      36.772  43.837  27.141 -0.21 +0.04    -0.245 NA ATOM     43  S   UNL     1      34.935  42.032  27.183 -0.72 +0.04    -0.126 S  ATOM     44  C   UNL     1      35.701  44.367  27.844 -0.46 -0.01    +0.049 A  ATOM     45  C   UNL     1      34.620  43.520  27.974 -0.54 -0.02    +0.090 A  ATOM     46  C   UNL     1      35.811  45.745  28.386 -0.33 -0.02    +0.067 C  ENDBRANCH  40  41ENDBRANCH  29  40ENDBRANCH  21  24ENDBRANCH   4  20TORSDOF 10TERENDMDL