
     RDKit          3D

 49 51  0  0  0  0  0  0  0  0999 V2000
    5.2693   -1.0964   -2.8923 C   0  0  0  0  0  0  0  0  0  0  0  0
    5.1430   -0.9842   -1.3829 C   0  0  0  0  0  0  0  0  0  0  0  0
    6.1125   -0.3779   -0.6394 C   0  0  0  0  0  0  0  0  0  0  0  0
    7.2014    0.2227   -1.2672 O   0  0  0  0  0  0  0  0  0  0  0  0
    8.5029   -0.8340   -1.4773 Cl  0  0  0  0  0  0  0  0  0  0  0  0
    6.2330   -0.2831    0.8259 C   0  0  0  0  0  0  0  0  0  0  0  0
    5.3389   -0.0200    1.7946 C   0  0  0  0  0  0  0  0  0  0  0  0
    3.9304    0.1985    1.4652 C   0  0  0  0  0  0  0  0  0  0  0  0
    2.9284   -0.1072    2.2330 N   0  0  0  0  0  0  0  0  0  0  0  0
    1.8424   -0.3649    1.4284 C   0  0  0  0  0  0  0  0  0  0  0  0
    1.0417    0.6921    1.0804 N   0  0  0  0  0  0  0  0  0  0  0  0
   -0.3642    0.6434    0.9560 C   0  0  0  0  0  0  0  0  0  0  0  0
   -1.0310    1.7728    0.4768 C   0  0  0  0  0  0  0  0  0  0  0  0
   -2.4228    1.7727    0.2998 C   0  0  0  0  0  0  0  0  0  0  0  0
   -3.2113    0.6512    0.5937 C   0  0  0  0  0  0  0  0  0  0  0  0
   -4.5822    0.6550    0.4118 N   0  0  0  0  0  0  0  0  0  0  0  0
   -5.3599    1.9068    0.3994 C   0  0  0  0  0  0  0  0  0  0  0  0
   -6.7624    1.6699    0.9862 C   0  0  0  0  0  0  0  0  0  0  0  0
   -7.5275    0.6803    0.2873 O   0  0  0  0  0  0  0  0  0  0  0  0
   -6.7193   -0.3499   -0.2970 C   0  0  0  0  0  0  0  0  0  0  0  0
   -5.3770   -0.5834    0.4141 C   0  0  0  0  0  0  0  0  0  0  0  0
   -2.5234   -0.4772    1.0619 C   0  0  0  0  0  0  0  0  0  0  0  0
   -1.1303   -0.4856    1.2392 C   0  0  0  0  0  0  0  0  0  0  0  0
    1.9081   -1.5616    0.9613 N   0  0  0  0  0  0  0  0  0  0  0  0
    1.6132   -1.7637   -0.4520 C   0  0  0  0  0  0  0  0  0  0  0  0
    2.8658   -1.2904   -1.1986 C   0  0  0  0  0  0  0  0  0  0  0  0
    4.0626   -1.6244   -0.8075 N   0  0  0  0  0  0  0  0  0  0  0  0
    5.4402   -2.1437   -3.1672 H   0  0  0  0  0  0  0  0  0  0  0  0
    6.0917   -0.5020   -3.3029 H   0  0  0  0  0  0  0  0  0  0  0  0
    4.3665   -0.7508   -3.4018 H   0  0  0  0  0  0  0  0  0  0  0  0
    7.2495   -0.4740    1.1725 H   0  0  0  0  0  0  0  0  0  0  0  0
    5.6004   -0.0648    2.8436 H   0  0  0  0  0  0  0  0  0  0  0  0
    3.7531    0.5512    0.4349 H   0  0  0  0  0  0  0  0  0  0  0  0
    1.3145    1.5297    1.5834 H   0  0  0  0  0  0  0  0  0  0  0  0
   -0.4736    2.6687    0.2129 H   0  0  0  0  0  0  0  0  0  0  0  0
   -2.8752    2.6724   -0.1074 H   0  0  0  0  0  0  0  0  0  0  0  0
   -5.4443    2.2575   -0.6343 H   0  0  0  0  0  0  0  0  0  0  0  0
   -4.8777    2.6867    0.9981 H   0  0  0  0  0  0  0  0  0  0  0  0
   -6.6850    1.3541    2.0327 H   0  0  0  0  0  0  0  0  0  0  0  0
   -7.3379    2.6010    0.9682 H   0  0  0  0  0  0  0  0  0  0  0  0
   -7.3104   -1.2700   -0.2929 H   0  0  0  0  0  0  0  0  0  0  0  0
   -6.5513   -0.0779   -1.3439 H   0  0  0  0  0  0  0  0  0  0  0  0
   -4.8526   -1.3880   -0.1139 H   0  0  0  0  0  0  0  0  0  0  0  0
   -5.5513   -0.8945    1.4498 H   0  0  0  0  0  0  0  0  0  0  0  0
   -3.0592   -1.3863    1.3226 H   0  0  0  0  0  0  0  0  0  0  0  0
   -0.6693   -1.3938    1.6192 H   0  0  0  0  0  0  0  0  0  0  0  0
    0.7452   -1.2116   -0.8208 H   0  0  0  0  0  0  0  0  0  0  0  0
    1.4643   -2.8271   -0.6608 H   0  0  0  0  0  0  0  0  0  0  0  0
    2.6797   -0.5985   -2.0387 H   0  0  0  0  0  0  0  0  0  0  0  0
  1  2  1  0
  2  3  2  3
  3  4  1  0
  4  5  1  0
  3  6  1  0
  6  7  2  3
  7  8  1  0
  8  9  2  3
  9 10  1  0
 10 11  1  0
 11 12  1  0
 12 13  2  0
 13 14  1  0
 14 15  2  0
 15 16  1  0
 16 17  1  0
 17 18  1  0
 18 19  1  0
 19 20  1  0
 20 21  1  0
 15 22  1  0
 22 23  2  0
 10 24  2  3
 24 25  1  0
 25 26  1  0
 26 27  2  3
 27  2  1  0
 23 12  1  0
 21 16  1  0
  1 28  1  0
  1 29  1  0
  1 30  1  0
  6 31  1  0
  7 32  1  0
  8 33  1  0
 11 34  1  0
 13 35  1  0
 14 36  1  0
 17 37  1  0
 17 38  1  0
 18 39  1  0
 18 40  1  0
 20 41  1  0
 20 42  1  0
 21 43  1  0
 21 44  1  0
 22 45  1  0
 23 46  1  0
 25 47  1  0
 25 48  1  0
 26 49  1  0
M  END
$$$$
