
     RDKit          3D

 46 49  0  0  0  0  0  0  0  0999 V2000
   -6.1323    1.3711   -2.5514 O   0  0  0  0  0  0  0  0  0  0  0  0
   -6.0339    0.5951   -1.3548 C   0  0  0  0  0  0  0  0  0  0  0  0
   -5.5669    1.4668   -0.1969 C   0  0  0  0  0  0  0  0  0  0  0  0
   -5.5831    0.7751    1.0759 N   0  0  0  0  0  0  0  0  0  0  0  0
   -6.7881    0.4043    1.5755 N   0  0  0  0  0  0  0  0  0  0  0  0
   -6.5114   -0.0076    2.8124 C   0  0  0  0  0  0  0  0  0  0  0  0
   -5.1474    0.1079    3.1232 C   0  0  0  0  0  0  0  0  0  0  0  0
   -4.5532    0.5854    1.9753 C   0  0  0  0  0  0  0  0  0  0  0  0
   -3.2521    0.9012    1.7553 N   0  0  0  0  0  0  0  0  0  0  0  0
   -2.4503    0.3071    0.7618 C   0  0  0  0  0  0  0  0  0  0  0  0
   -2.9794   -0.3499   -0.2880 N   0  0  0  0  0  0  0  0  0  0  0  0
   -2.1653   -0.9145   -1.2280 N   0  0  0  0  0  0  0  0  0  0  0  0
   -0.8394   -0.8137   -1.0900 C   0  0  0  0  0  0  0  0  0  0  0  0
    0.0293   -1.3583   -2.0255 C   0  0  0  0  0  0  0  0  0  0  0  0
    1.4116   -1.2481   -1.8650 C   0  0  0  0  0  0  0  0  0  0  0  0
    1.9536   -0.6118   -0.7462 C   0  0  0  0  0  0  0  0  0  0  0  0
    3.3375   -0.4667   -0.6685 N   0  0  0  0  0  0  0  0  0  0  0  0
    3.9740   -0.1179    0.5952 C   0  0  0  0  0  0  0  0  0  0  0  0
    5.4738   -0.2033    0.4362 C   0  0  0  0  0  0  0  0  0  0  0  0
    6.1627    0.7688   -0.3049 C   0  0  0  0  0  0  0  0  0  0  0  0
    7.5464    0.6882   -0.4666 C   0  0  0  0  0  0  0  0  0  0  0  0
    8.2548   -0.3665    0.1059 C   0  0  0  0  0  0  0  0  0  0  0  0
    7.5806   -1.3431    0.8370 C   0  0  0  0  0  0  0  0  0  0  0  0
    6.1962   -1.2649    0.9997 C   0  0  0  0  0  0  0  0  0  0  0  0
    1.0578   -0.0353    0.1633 C   0  0  0  0  0  0  0  0  0  0  0  0
   -0.3252   -0.1351    0.0207 C   0  0  0  0  0  0  0  0  0  0  0  0
   -1.1260    0.4219    0.9469 N   0  0  0  0  0  0  0  0  0  0  0  0
   -6.9324    1.9191   -2.4715 H   0  0  0  0  0  0  0  0  0  0  0  0
   -7.0146    0.1468   -1.1622 H   0  0  0  0  0  0  0  0  0  0  0  0
   -5.3332   -0.2232   -1.5421 H   0  0  0  0  0  0  0  0  0  0  0  0
   -4.5689    1.8702   -0.3909 H   0  0  0  0  0  0  0  0  0  0  0  0
   -6.2244    2.3392   -0.0931 H   0  0  0  0  0  0  0  0  0  0  0  0
   -7.3184   -0.3640    3.4397 H   0  0  0  0  0  0  0  0  0  0  0  0
   -4.6611   -0.1412    4.0546 H   0  0  0  0  0  0  0  0  0  0  0  0
   -2.6268    0.9975    2.5515 H   0  0  0  0  0  0  0  0  0  0  0  0
   -0.3761   -1.8671   -2.8963 H   0  0  0  0  0  0  0  0  0  0  0  0
    2.0637   -1.6650   -2.6295 H   0  0  0  0  0  0  0  0  0  0  0  0
    3.8443   -1.1956   -1.1665 H   0  0  0  0  0  0  0  0  0  0  0  0
    3.6466   -0.7971    1.3923 H   0  0  0  0  0  0  0  0  0  0  0  0
    3.7116    0.9031    0.8981 H   0  0  0  0  0  0  0  0  0  0  0  0
    5.6163    1.5898   -0.7655 H   0  0  0  0  0  0  0  0  0  0  0  0
    8.0705    1.4467   -1.0424 H   0  0  0  0  0  0  0  0  0  0  0  0
    9.3324   -0.4291   -0.0210 H   0  0  0  0  0  0  0  0  0  0  0  0
    8.1340   -2.1676    1.2793 H   0  0  0  0  0  0  0  0  0  0  0  0
    5.6859   -2.0387    1.5689 H   0  0  0  0  0  0  0  0  0  0  0  0
    1.4263    0.5202    1.0210 H   0  0  0  0  0  0  0  0  0  0  0  0
  1  2  1  0
  2  3  1  0
  3  4  1  0
  4  5  1  0
  5  6  2  0
  6  7  1  0
  7  8  2  0
  8  9  1  0
  9 10  1  0
 10 11  2  0
 11 12  1  0
 12 13  2  0
 13 14  1  0
 14 15  2  0
 15 16  1  0
 16 17  1  0
 17 18  1  0
 18 19  1  0
 19 20  2  0
 20 21  1  0
 21 22  2  0
 22 23  1  0
 23 24  2  0
 16 25  2  0
 25 26  1  0
 26 27  2  0
  8  4  1  0
 27 10  1  0
 26 13  1  0
 24 19  1  0
  1 28  1  0
  2 29  1  0
  2 30  1  0
  3 31  1  0
  3 32  1  0
  6 33  1  0
  7 34  1  0
  9 35  1  0
 14 36  1  0
 15 37  1  0
 17 38  1  0
 18 39  1  0
 18 40  1  0
 20 41  1  0
 21 42  1  0
 22 43  1  0
 23 44  1  0
 24 45  1  0
 25 46  1  0
M  END
$$$$
