
     RDKit          3D

 47 49  0  0  0  0  0  0  0  0999 V2000
    0.3602    5.8253   -0.2794 C   0  0  0  0  0  0  0  0  0  0  0  0
    0.5773    4.3674    0.1706 C   0  0  0  0  0  0  0  0  0  0  0  0
    0.1209    3.1553   -0.1697 C   0  0  0  0  0  0  0  0  0  0  0  0
   -0.8391    2.7004   -1.1738 C   0  0  0  0  0  0  0  0  0  0  0  0
   -1.2270    1.5103   -1.5362 N   0  0  0  0  0  0  0  0  0  0  0  0
   -0.6735    0.4225   -0.9093 C   0  0  0  0  0  0  0  0  0  0  0  0
   -1.2833   -0.0506    0.2498 N   0  0  0  0  0  0  0  0  0  0  0  0
   -2.1524   -1.2420    0.1637 C   0  0  0  0  0  0  0  0  0  0  0  0
   -2.9603   -1.4028    1.4366 C   0  0  0  0  0  0  0  0  0  0  0  0
   -4.1708   -0.7252    1.5865 C   0  0  0  0  0  0  0  0  0  0  0  0
   -4.8776   -0.8646    2.7778 C   0  0  0  0  0  0  0  0  0  0  0  0
   -4.3591   -1.6659    3.7875 C   0  0  0  0  0  0  0  0  0  0  0  0
   -3.1481   -2.2975    3.5637 C   0  0  0  0  0  0  0  0  0  0  0  0
   -2.4414   -2.1820    2.4186 N   0  0  0  0  0  0  0  0  0  0  0  0
    0.4048   -0.1704   -1.4498 C   0  0  0  0  0  0  0  0  0  0  0  0
    1.0469    0.1757   -2.7355 C   0  0  0  0  0  0  0  0  0  0  0  0
    2.0677   -0.5817   -3.0400 N   0  0  0  0  0  0  0  0  0  0  0  0
    2.1747   -1.4966   -1.9842 N   0  0  0  0  0  0  0  0  0  0  0  0
    3.3496   -2.3583   -1.9412 C   0  0  0  0  0  0  0  0  0  0  0  0
    2.9575   -3.8142   -1.7059 C   0  0  0  0  0  0  0  0  0  0  0  0
    4.3507   -1.8636   -0.9013 C   0  0  0  0  0  0  0  0  0  0  0  0
    1.2634   -1.2791   -0.9592 C   0  0  0  0  0  0  0  0  0  0  0  0
    1.1959   -1.8628    0.1856 N   0  0  0  0  0  0  0  0  0  0  0  0
    0.9210    2.5330    0.8200 C   0  0  0  0  0  0  0  0  0  0  0  0
    1.3970    3.7450    1.1729 C   0  0  0  0  0  0  0  0  0  0  0  0
   -0.6695    6.1362   -0.0794 H   0  0  0  0  0  0  0  0  0  0  0  0
    1.0349    6.5001    0.2560 H   0  0  0  0  0  0  0  0  0  0  0  0
    0.5518    5.9262   -1.3518 H   0  0  0  0  0  0  0  0  0  0  0  0
   -1.3187    3.5273   -1.7265 H   0  0  0  0  0  0  0  0  0  0  0  0
   -1.8501    0.7144    0.6137 H   0  0  0  0  0  0  0  0  0  0  0  0
   -1.5536   -2.1446    0.0019 H   0  0  0  0  0  0  0  0  0  0  0  0
   -2.8370   -1.1527   -0.6894 H   0  0  0  0  0  0  0  0  0  0  0  0
   -4.5604   -0.0982    0.7906 H   0  0  0  0  0  0  0  0  0  0  0  0
   -5.8242   -0.3504    2.9180 H   0  0  0  0  0  0  0  0  0  0  0  0
   -4.8838   -1.7943    4.7273 H   0  0  0  0  0  0  0  0  0  0  0  0
   -2.6979   -2.9321    4.3218 H   0  0  0  0  0  0  0  0  0  0  0  0
    0.6690    0.9993   -3.3554 H   0  0  0  0  0  0  0  0  0  0  0  0
    3.8445   -2.3159   -2.9205 H   0  0  0  0  0  0  0  0  0  0  0  0
    2.5357   -3.9728   -0.7088 H   0  0  0  0  0  0  0  0  0  0  0  0
    2.2122   -4.1402   -2.4395 H   0  0  0  0  0  0  0  0  0  0  0  0
    3.8321   -4.4668   -1.8007 H   0  0  0  0  0  0  0  0  0  0  0  0
    5.2696   -2.4582   -0.9374 H   0  0  0  0  0  0  0  0  0  0  0  0
    4.6180   -0.8173   -1.0852 H   0  0  0  0  0  0  0  0  0  0  0  0
    3.9511   -1.9299    0.1158 H   0  0  0  0  0  0  0  0  0  0  0  0
    0.4314   -1.4375    0.7333 H   0  0  0  0  0  0  0  0  0  0  0  0
    1.0867    1.5150    1.1590 H   0  0  0  0  0  0  0  0  0  0  0  0
    2.1036    4.1146    1.9092 H   0  0  0  0  0  0  0  0  0  0  0  0
  1  2  1  0
  2  3  2  0
  3  4  1  0
  4  5  2  3
  5  6  1  0
  6  7  1  0
  7  8  1  0
  8  9  1  0
  9 10  2  0
 10 11  1  0
 11 12  2  0
 12 13  1  0
 13 14  2  0
  6 15  2  3
 15 16  1  0
 16 17  2  0
 17 18  1  0
 18 19  1  0
 19 20  1  0
 19 21  1  0
 18 22  1  0
 22 23  2  3
  3 24  1  0
 24 25  2  0
 25  2  1  0
 14  9  1  0
 22 15  1  0
  1 26  1  0
  1 27  1  0
  1 28  1  0
  4 29  1  0
  7 30  1  0
  8 31  1  0
  8 32  1  0
 10 33  1  0
 11 34  1  0
 12 35  1  0
 13 36  1  0
 16 37  1  0
 19 38  1  0
 20 39  1  0
 20 40  1  0
 20 41  1  0
 21 42  1  0
 21 43  1  0
 21 44  1  0
 23 45  1  0
 24 46  1  0
 25 47  1  0
M  END
$$$$
