
     RDKit          3D

 50 51  0  0  0  0  0  0  0  0999 V2000
    5.5528   -1.5657    2.5247 C   0  0  0  0  0  0  0  0  0  0  0  0
    4.6251   -1.5620    1.3090 C   0  0  0  0  0  0  0  0  0  0  0  0
    5.4098   -1.1646    0.0561 C   0  0  0  0  0  0  0  0  0  0  0  0
    3.4407   -0.6180    1.5534 C   0  0  0  0  0  0  0  0  0  0  0  0
    2.3711   -0.8115    0.5122 C   0  0  0  0  0  0  0  0  0  0  0  0
    2.0676    0.1468   -0.3032 N   0  0  0  0  0  0  0  0  0  0  0  0
    1.0637   -0.1702   -1.1954 N   0  0  0  0  0  0  0  0  0  0  0  0
   -0.2649   -0.2476   -0.7577 C   0  0  0  0  0  0  0  0  0  0  0  0
   -0.8813   -1.4348   -0.8728 C   0  0  0  0  0  0  0  0  0  0  0  0
   -2.3004   -1.5227   -0.4631 C   0  0  0  0  0  0  0  0  0  0  0  0
   -3.0498   -2.7922   -0.8702 C   0  0  0  0  0  0  0  0  0  0  0  0
   -3.4714   -3.5750    0.3704 C   0  0  0  0  0  0  0  0  0  0  0  0
   -4.2547   -2.4417   -1.7395 C   0  0  0  0  0  0  0  0  0  0  0  0
   -2.9341   -0.6254    0.2103 N   0  0  0  0  0  0  0  0  0  0  0  0
   -2.1569    0.5610    0.5647 C   0  0  0  0  0  0  0  0  0  0  0  0
   -0.9713    0.8417   -0.2520 N   0  0  0  0  0  0  0  0  0  0  0  0
   -0.3152    2.1262    0.0495 C   0  0  0  0  0  0  0  0  0  0  0  0
   -1.1876    3.3154   -0.2683 C   0  0  0  0  0  0  0  0  0  0  0  0
   -1.8973    3.4186   -1.4696 C   0  0  0  0  0  0  0  0  0  0  0  0
   -2.6603    4.5530   -1.7283 C   0  0  0  0  0  0  0  0  0  0  0  0
   -2.6782    5.5604   -0.7787 C   0  0  0  0  0  0  0  0  0  0  0  0
   -1.9942    5.5085    0.3843 N   0  0  0  0  0  0  0  0  0  0  0  0
   -1.2637    4.3923    0.6092 C   0  0  0  0  0  0  0  0  0  0  0  0
    5.9615   -0.5676    2.7164 H   0  0  0  0  0  0  0  0  0  0  0  0
    6.3924   -2.2523    2.3715 H   0  0  0  0  0  0  0  0  0  0  0  0
    5.0165   -1.8910    3.4227 H   0  0  0  0  0  0  0  0  0  0  0  0
    4.2492   -2.5832    1.1634 H   0  0  0  0  0  0  0  0  0  0  0  0
    4.7823   -1.2222   -0.8391 H   0  0  0  0  0  0  0  0  0  0  0  0
    5.7950   -0.1421    0.1357 H   0  0  0  0  0  0  0  0  0  0  0  0
    6.2621   -1.8356   -0.0961 H   0  0  0  0  0  0  0  0  0  0  0  0
    2.9774   -0.8390    2.5219 H   0  0  0  0  0  0  0  0  0  0  0  0
    3.7650    0.4287    1.5648 H   0  0  0  0  0  0  0  0  0  0  0  0
    1.8766   -1.7988    0.4810 H   0  0  0  0  0  0  0  0  0  0  0  0
    1.0595    0.5408   -1.9335 H   0  0  0  0  0  0  0  0  0  0  0  0
   -0.3876   -2.3069   -1.2775 H   0  0  0  0  0  0  0  0  0  0  0  0
   -2.3796   -3.4272   -1.4624 H   0  0  0  0  0  0  0  0  0  0  0  0
   -3.9484   -4.5197    0.0897 H   0  0  0  0  0  0  0  0  0  0  0  0
   -2.6031   -3.8058    0.9969 H   0  0  0  0  0  0  0  0  0  0  0  0
   -4.1800   -3.0078    0.9844 H   0  0  0  0  0  0  0  0  0  0  0  0
   -4.7479   -3.3497   -2.1015 H   0  0  0  0  0  0  0  0  0  0  0  0
   -4.9950   -1.8530   -1.1868 H   0  0  0  0  0  0  0  0  0  0  0  0
   -3.9468   -1.8523   -2.6100 H   0  0  0  0  0  0  0  0  0  0  0  0
   -1.8551    0.4687    1.6162 H   0  0  0  0  0  0  0  0  0  0  0  0
   -2.8493    1.4080    0.5164 H   0  0  0  0  0  0  0  0  0  0  0  0
   -0.0173    2.1334    1.1055 H   0  0  0  0  0  0  0  0  0  0  0  0
    0.5968    2.2673   -0.5408 H   0  0  0  0  0  0  0  0  0  0  0  0
   -1.8644    2.6095   -2.1957 H   0  0  0  0  0  0  0  0  0  0  0  0
   -3.2274    4.6472   -2.6472 H   0  0  0  0  0  0  0  0  0  0  0  0
   -3.2597    6.4646   -0.9338 H   0  0  0  0  0  0  0  0  0  0  0  0
   -0.7221    4.3936    1.5517 H   0  0  0  0  0  0  0  0  0  0  0  0
  1  2  1  0
  2  3  1  0
  2  4  1  0
  4  5  1  0
  5  6  2  3
  6  7  1  0
  7  8  1  0
  8  9  2  0
  9 10  1  0
 10 11  1  0
 11 12  1  0
 11 13  1  0
 10 14  2  0
 14 15  1  0
 15 16  1  0
 16 17  1  0
 17 18  1  0
 18 19  2  0
 19 20  1  0
 20 21  2  0
 21 22  1  0
 22 23  2  0
 16  8  1  0
 23 18  1  0
  1 24  1  0
  1 25  1  0
  1 26  1  0
  2 27  1  0
  3 28  1  0
  3 29  1  0
  3 30  1  0
  4 31  1  0
  4 32  1  0
  5 33  1  0
  7 34  1  0
  9 35  1  0
 11 36  1  0
 12 37  1  0
 12 38  1  0
 12 39  1  0
 13 40  1  0
 13 41  1  0
 13 42  1  0
 15 43  1  0
 15 44  1  0
 17 45  1  0
 17 46  1  0
 19 47  1  0
 20 48  1  0
 21 49  1  0
 23 50  1  0
M  END
$$$$
