
     RDKit          3D

 45 47  0  0  0  0  0  0  0  0999 V2000
   -5.8149    1.0203    0.8221 C   0  0  0  0  0  0  0  0  0  0  0  0
   -5.2149    0.8331   -0.5687 C   0  0  0  0  0  0  0  0  0  0  0  0
   -5.4459   -0.5711   -1.1213 C   0  0  0  0  0  0  0  0  0  0  0  0
   -3.8161    1.2402   -0.6313 N   0  0  0  0  0  0  0  0  0  0  0  0
   -2.8159    0.4736   -0.0719 C   0  0  0  0  0  0  0  0  0  0  0  0
   -3.0279   -0.2429    1.0384 N   0  0  0  0  0  0  0  0  0  0  0  0
   -1.9893   -0.9472    1.5310 C   0  0  0  0  0  0  0  0  0  0  0  0
   -0.7433   -0.9719    0.9511 C   0  0  0  0  0  0  0  0  0  0  0  0
   -0.6367   -0.2049   -0.1948 C   0  0  0  0  0  0  0  0  0  0  0  0
   -1.6465    0.5128   -0.7141 N   0  0  0  0  0  0  0  0  0  0  0  0
    0.5548   -0.1024   -0.9213 N   0  0  0  0  0  0  0  0  0  0  0  0
    1.5944   -0.7651   -0.5055 C   0  0  0  0  0  0  0  0  0  0  0  0
    2.9331   -0.6438   -1.2274 C   0  0  1  0  0  0  0  0  0  0  0  0
    2.7536   -0.4183   -2.7323 C   0  0  0  0  0  0  0  0  0  0  0  0
    3.7904    0.4378   -0.5878 C   0  0  0  0  0  0  0  0  0  0  0  0
    3.4256    1.7927   -0.6486 C   0  0  0  0  0  0  0  0  0  0  0  0
    4.2171    2.7708   -0.0417 C   0  0  0  0  0  0  0  0  0  0  0  0
    5.3765    2.4017    0.6349 C   0  0  0  0  0  0  0  0  0  0  0  0
    6.3502    3.6060    1.3845 Cl  0  0  0  0  0  0  0  0  0  0  0  0
    5.7495    1.0625    0.7131 C   0  0  0  0  0  0  0  0  0  0  0  0
    4.9583    0.0841    0.1062 C   0  0  0  0  0  0  0  0  0  0  0  0
    1.5737   -1.6575    0.7388 C   0  0  0  0  0  0  0  0  0  0  0  0
    2.5824   -2.2795    1.0453 O   0  0  0  0  0  0  0  0  0  0  0  0
    0.3696   -1.7037    1.4335 N   0  0  0  0  0  0  0  0  0  0  0  0
    0.2582   -2.5126    2.6324 C   0  0  0  0  0  0  0  0  0  0  0  0
   -5.4451    0.2834    1.5407 H   0  0  0  0  0  0  0  0  0  0  0  0
   -6.9045    0.9137    0.7831 H   0  0  0  0  0  0  0  0  0  0  0  0
   -5.5885    2.0172    1.2156 H   0  0  0  0  0  0  0  0  0  0  0  0
   -5.7540    1.5246   -1.2293 H   0  0  0  0  0  0  0  0  0  0  0  0
   -5.0090   -0.6741   -2.1206 H   0  0  0  0  0  0  0  0  0  0  0  0
   -5.0057   -1.3438   -0.4830 H   0  0  0  0  0  0  0  0  0  0  0  0
   -6.5182   -0.7804   -1.1994 H   0  0  0  0  0  0  0  0  0  0  0  0
   -3.4865    1.4924   -1.5581 H   0  0  0  0  0  0  0  0  0  0  0  0
   -2.2245   -1.4995    2.4341 H   0  0  0  0  0  0  0  0  0  0  0  0
    3.4476   -1.6087   -1.1335 H   0  0  0  0  0  0  0  0  0  0  0  0
    2.2334    0.5189   -2.9581 H   0  0  0  0  0  0  0  0  0  0  0  0
    3.7243   -0.3885   -3.2396 H   0  0  0  0  0  0  0  0  0  0  0  0
    2.1657   -1.2307   -3.1740 H   0  0  0  0  0  0  0  0  0  0  0  0
    2.5162    2.0990   -1.1643 H   0  0  0  0  0  0  0  0  0  0  0  0
    3.9206    3.8147   -0.0994 H   0  0  0  0  0  0  0  0  0  0  0  0
    6.6506    0.7717    1.2462 H   0  0  0  0  0  0  0  0  0  0  0  0
    5.2581   -0.9597    0.1866 H   0  0  0  0  0  0  0  0  0  0  0  0
   -0.4979   -3.2884    2.4770 H   0  0  0  0  0  0  0  0  0  0  0  0
   -0.0241   -1.8749    3.4760 H   0  0  0  0  0  0  0  0  0  0  0  0
    1.2055   -3.0016    2.8766 H   0  0  0  0  0  0  0  0  0  0  0  0
  1  2  1  0
  2  3  1  0
  2  4  1  0
  4  5  1  0
  5  6  2  0
  6  7  1  0
  7  8  2  0
  8  9  1  0
  9 10  2  0
  9 11  1  0
 11 12  2  0
 12 13  1  0
 13 14  1  0
 13 15  1  0
 15 16  2  0
 16 17  1  0
 17 18  2  0
 18 19  1  0
 18 20  1  0
 20 21  2  0
 12 22  1  0
 22 23  2  0
 22 24  1  0
 24 25  1  0
 10  5  1  0
 21 15  1  0
 24  8  1  0
  1 26  1  0
  1 27  1  0
  1 28  1  0
  2 29  1  0
  3 30  1  0
  3 31  1  0
  3 32  1  0
  4 33  1  0
  7 34  1  0
 13 35  1  6
 14 36  1  0
 14 37  1  0
 14 38  1  0
 16 39  1  0
 17 40  1  0
 20 41  1  0
 21 42  1  0
 25 43  1  0
 25 44  1  0
 25 45  1  0
M  END
$$$$
