MODEL        1USER    Run = 1USERUSER    Estimated Free Energy of Binding    =  -9.19 kcal/mol  [=(1)+(2)+(3)-(4)]USERUSER    (1) Final Intermolecular Energy     = -13.96 kcal/molUSER        vdW + Hbond + desolv Energy     = -14.21 kcal/molUSER        Electrostatic Energy            =  -0.52 kcal/molUSER        Moving Ligand-Fixed Receptor    = -14.73 kcal/molUSER        Moving Ligand-Moving Receptor   =  +0.77 kcal/molUSER    (2) Final Total Internal Energy     =  -3.99 kcal/molUSER    (3) Torsional Free Energy           =  +4.77 kcal/molUSER    (4) Unbound System's Energy         =  -3.99 kcal/molUSERUSERREMARK SMILES COc1ccc(O)c(C(=O)c2ccc(C(=O)N[C@@H]3CCCN(Cc4ccc(F)cc4)C[C@H]3NC(=O)c3ccncc3)cc2)c1FREMARK SMILES IDX 18 1 17 3 15 4 16 5 14 7 11 8 12 9 43 10 13 11 42 12 9 13REMARK SMILES IDX 10 14 8 15 3 16 4 17 44 18 5 19 6 20 45 21 2 22 1 23 7 24REMARK SMILES IDX 32 26 31 27 22 28 21 29 20 30 19 31 23 33 24 34 25 35 30 36REMARK SMILES IDX 26 37 29 38 27 39 28 40 33 41 34 42 35 44 36 45 37 46 41 47REMARK SMILES IDX 38 48 40 49 39 50REMARK H PARENT 17 6 7 25 33 43REMARK Flexibility Score:  124.900USER                              x       y       z     vdW  Elec       q    TypeUSER                           _______ _______ _______ _____ _____    ______ ____ROOTATOM      1  C   UNL     1      36.989  44.401  19.420 -0.35 -0.01    +0.106 CG0ATOM      2  G   UNL     1      35.735  43.576  19.732 +0.00 +0.00    +0.000 G0 ENDROOTBRANCH   1   3ATOM      3  N   UNL     1      38.094  43.965  20.294 -0.12 +0.01    -0.347 N  ATOM      4  C   UNL     1      39.098  44.823  20.693 -0.25 +0.00    +0.251 C  ATOM      5  O   UNL     1      39.082  46.019  20.406 -0.19 -0.00    -0.269 OA ATOM      6  H   UNL     1      38.232  42.968  20.363 +0.12 -0.00    +0.164 HD BRANCH   4   7ATOM      7  C   UNL     1      40.226  44.261  21.500 -0.27 +0.00    +0.039 A  ATOM      8  C   UNL     1      42.226  43.152  23.132 -0.26 +0.00    +0.023 A  ATOM      9  C   UNL     1      41.012  43.542  23.697 -0.20 +0.00    +0.013 A  ATOM     10  C   UNL     1      42.461  43.346  21.767 -0.33 +0.00    +0.013 A  ATOM     11  C   UNL     1      40.017  44.092  22.881 -0.22 +0.00    +0.014 A  ATOM     12  C   UNL     1      41.460  43.887  20.952 -0.32 +0.00    +0.014 A  BRANCH   8  13ATOM     13  C   UNL     1      43.307  42.576  23.956 -0.17 -0.01    +0.199 C  ATOM     14  O   UNL     1      43.087  42.381  25.153 -0.11 +0.03    -0.288 OA BRANCH  13  15ATOM     15  C   UNL     1      44.631  42.206  23.404 -0.22 -0.00    +0.104 A  ATOM     16  C   UNL     1      46.697  42.766  22.226 -0.18 +0.03    +0.155 A  ATOM     17  C   UNL     1      47.157  41.462  22.414 -0.13 -0.01    +0.053 A  ATOM     18  C   UNL     1      45.435  43.127  22.729 -0.19 +0.04    +0.179 A  ATOM     19  C   UNL     1      46.372  40.538  23.107 -0.25 -0.01    +0.051 A  ATOM     20  C   UNL     1      45.125  40.912  23.608 -0.23 -0.02    +0.130 A  ATOM     21  F   UNL     1      45.026  44.398  22.578 -0.06 -0.10    -0.202 F  BRANCH  16  22ATOM     22  O   UNL     1      47.380  43.766  21.587 -0.55 -0.47    -0.494 OA ATOM     23  C   UNL     1      48.664  43.449  21.064 -0.11 +0.11    +0.278 C  ENDBRANCH  16  22BRANCH  20  24ATOM     24  O   UNL     1      44.439  39.948  24.299 -0.66 +0.02    -0.507 OA ATOM     25  H   UNL     1      43.832  40.400  24.930 -0.00 -0.03    +0.293 HD ENDBRANCH  20  24ENDBRANCH  13  15ENDBRANCH   8  13ENDBRANCH   4   7ENDBRANCH   1   3BRANCH   1  26ATOM     26  C   UNL     1      37.457  44.446  17.935 -0.32 -0.02    +0.118 C  BRANCH  26  27ATOM     27  C   UNL     1      36.293  44.340  16.917 -0.31 -0.04    +0.111 C  BRANCH  27  28ATOM     28  N   UNL     1      35.284  45.397  17.099 -0.14 +0.18    -0.297 NA BRANCH  28  29ATOM     29  C   UNL     1      34.604  45.404  18.389 -0.43 -0.04    +0.085 C  BRANCH  29  30ATOM     30  C   UNL     1      34.464  44.026  19.041 -0.43 -0.00    +0.018 C  BRANCH  30  31ATOM     31  C   UNL     1      35.739  43.576  19.744 -0.45 -0.00    +0.028 CG0ATOM     32  G   UNL     1      36.990  44.402  19.418 +0.00 +0.00    +0.000 G0 ENDBRANCH  30  31ENDBRANCH  29  30ENDBRANCH  28  29BRANCH  28  33ATOM     33  C   UNL     1      35.786  46.731  16.715 -0.26 -0.12    +0.120 C  BRANCH  33  34ATOM     34  C   UNL     1      36.158  46.917  15.255 -0.33 +0.03    -0.034 A  ATOM     35  C   UNL     1      36.850  48.066  14.834 -0.43 -0.01    +0.008 A  ATOM     36  C   UNL     1      35.819  45.943  14.302 -0.42 -0.01    +0.008 A  ATOM     37  C   UNL     1      37.182  48.243  13.490 -0.52 -0.02    +0.039 A  ATOM     38  C   UNL     1      36.153  46.121  12.956 -0.53 -0.02    +0.039 A  ATOM     39  C   UNL     1      36.826  47.271  12.564 -0.56 -0.05    +0.123 A  ATOM     40  F   UNL     1      37.138  47.445  11.274 -0.17 +0.06    -0.207 F  ENDBRANCH  33  34ENDBRANCH  28  33ENDBRANCH  27  28ENDBRANCH  26  27BRANCH  26  41ATOM     41  N   UNL     1      38.262  45.667  17.724 -0.17 +0.08    -0.346 N  ATOM     42  C   UNL     1      38.898  45.936  16.534 -0.28 -0.06    +0.251 C  ATOM     43  H   UNL     1      38.690  46.047  18.570 +0.08 -0.03    +0.164 HD ATOM     44  O   UNL     1      38.742  45.264  15.520 -0.15 +0.06    -0.269 OA BRANCH  42  45ATOM     45  C   UNL     1      39.839  47.094  16.517 -0.46 -0.01    +0.042 A  ATOM     46  C   UNL     1      40.696  47.257  17.609 -0.50 -0.00    +0.034 A  ATOM     47  C   UNL     1      39.915  47.995  15.454 -0.52 -0.01    +0.034 A  ATOM     48  C   UNL     1      41.585  48.316  17.594 -0.25 -0.00    +0.112 A  ATOM     49  C   UNL     1      40.837  49.026  15.539 -0.53 -0.02    +0.112 A  ATOM     50  N   UNL     1      41.671  49.207  16.585 -0.87 -0.04    -0.265 NA ENDBRANCH  42  45ENDBRANCH  26  41ENDBRANCH   1  26TORSDOF 10TERENDMDL