REMARK SMILES COc1ccc(O)c(C(=O)c2ccc(C(=O)N[C@@H]3CCCN(Cc4ccc(F)cc4)C[C@H]3NC(=O)c3ccncc3)cc2)c1F
REMARK SMILES IDX 18 1 17 3 15 4 16 5 14 7 11 8 12 9 43 10 13 11 42 12 9 13
REMARK SMILES IDX 10 14 8 15 3 16 4 17 44 18 5 19 6 20 45 21 2 22 1 23 7 24
REMARK SMILES IDX 32 26 31 27 22 28 21 29 20 30 19 31 23 33 24 34 25 35 30 36
REMARK SMILES IDX 26 37 29 38 27 39 28 40 33 41 34 42 35 44 36 45 37 46 41 47
REMARK SMILES IDX 38 48 40 49 39 50
REMARK H PARENT 17 6 7 25 33 43
REMARK Flexibility Score:  124.900
ROOT
ATOM      1  C   UNL     1      -1.398  -0.823   1.350  1.00  0.00     0.106 CG0
ATOM      2  G   UNL     1      -1.661  -2.128   2.111  1.00  0.00     0.000 G0
ENDROOT
BRANCH   1   3
ATOM      3  N   UNL     1      -0.100  -0.913   0.655  1.00  0.00    -0.347 N 
ATOM      4  C   UNL     1       0.669   0.200   0.388  1.00  0.00     0.251 C 
ATOM      5  O   UNL     1       0.351   1.320   0.787  1.00  0.00    -0.269 OA
ATOM      6  H   UNL     1       0.070  -1.770   0.151  1.00  0.00     0.164 HD
BRANCH   4   7
ATOM      7  C   UNL     1       1.924   0.016  -0.407  1.00  0.00     0.039 A 
ATOM      8  C   UNL     1       4.344  -0.191  -1.818  1.00  0.00     0.023 A 
ATOM      9  C   UNL     1       3.944   1.046  -1.312  1.00  0.00     0.013 A 
ATOM     10  C   UNL     1       3.528  -1.314  -1.656  1.00  0.00     0.013 A 
ATOM     11  C   UNL     1       2.739   1.145  -0.607  1.00  0.00     0.014 A 
ATOM     12  C   UNL     1       2.328  -1.214  -0.943  1.00  0.00     0.014 A 
BRANCH   8  13
ATOM     13  C   UNL     1       5.603  -0.340  -2.574  1.00  0.00     0.199 C 
ATOM     14  O   UNL     1       5.559  -0.882  -3.680  1.00  0.00    -0.288 OA
BRANCH  13  15
ATOM     15  C   UNL     1       6.908   0.148  -2.070  1.00  0.00     0.104 A 
ATOM     16  C   UNL     1       8.414   0.745  -0.242  1.00  0.00     0.155 A 
ATOM     17  C   UNL     1       9.419   1.037  -1.166  1.00  0.00     0.053 A 
ATOM     18  C   UNL     1       7.165   0.298  -0.706  1.00  0.00     0.179 A 
ATOM     19  C   UNL     1       9.181   0.870  -2.532  1.00  0.00     0.051 A 
ATOM     20  C   UNL     1       7.940   0.417  -2.978  1.00  0.00     0.130 A 
ATOM     21  F   UNL     1       6.224  -0.021   0.199  1.00  0.00    -0.202 F 
BRANCH  16  22
ATOM     22  O   UNL     1       8.531   0.846   1.119  1.00  0.00    -0.494 OA
ATOM     23  C   UNL     1       9.797   1.235   1.638  1.00  0.00     0.278 C 
ENDBRANCH  16  22
BRANCH  20  24
ATOM     24  O   UNL     1       7.808   0.256  -4.332  1.00  0.00    -0.507 OA
ATOM     25  H   UNL     1       6.958  -0.214  -4.501  1.00  0.00     0.293 HD
ENDBRANCH  20  24
ENDBRANCH  13  15
ENDBRANCH   8  13
ENDBRANCH   4   7
ENDBRANCH   1   3
BRANCH   1  26
ATOM     26  C   UNL     1      -2.506  -0.339   0.369  1.00  0.00     0.118 C 
BRANCH  26  27
ATOM     27  C   UNL     1      -3.942  -0.694   0.835  1.00  0.00     0.111 C 
BRANCH  27  28
ATOM     28  N   UNL     1      -4.348  -2.050   0.430  1.00  0.00    -0.297 NA
BRANCH  28  29
ATOM     29  C   UNL     1      -3.833  -3.136   1.256  1.00  0.00     0.085 C 
BRANCH  29  30
ATOM     30  C   UNL     1      -2.306  -3.239   1.290  1.00  0.00     0.018 C 
BRANCH  30  31
ATOM     31  C   UNL     1      -1.661  -2.128   2.111  1.00  0.00     0.028 CG0
ATOM     32  G   UNL     1      -1.398  -0.823   1.350  1.00  0.00     0.000 G0
ENDBRANCH  30  31
ENDBRANCH  29  30
ENDBRANCH  28  29
BRANCH  28  33
ATOM     33  C   UNL     1      -5.801  -2.159   0.191  1.00  0.00     0.120 C 
BRANCH  33  34
ATOM     34  C   UNL     1      -6.698  -2.011   1.407  1.00  0.00    -0.034 A 
ATOM     35  C   UNL     1      -7.143  -0.743   1.817  1.00  0.00     0.008 A 
ATOM     36  C   UNL     1      -7.099  -3.140   2.140  1.00  0.00     0.008 A 
ATOM     37  C   UNL     1      -7.958  -0.605   2.942  1.00  0.00     0.039 A 
ATOM     38  C   UNL     1      -7.916  -3.001   3.265  1.00  0.00     0.039 A 
ATOM     39  C   UNL     1      -8.333  -1.735   3.657  1.00  0.00     0.123 A 
ATOM     40  F   UNL     1      -9.108  -1.602   4.740  1.00  0.00    -0.207 F 
ENDBRANCH  33  34
ENDBRANCH  28  33
ENDBRANCH  27  28
ENDBRANCH  26  27
BRANCH  26  41
ATOM     41  N   UNL     1      -2.344   1.112   0.143  1.00  0.00    -0.346 N 
ATOM     42  C   UNL     1      -2.949   1.769  -0.904  1.00  0.00     0.251 C 
ATOM     43  H   UNL     1      -1.462   1.500   0.481  1.00  0.00     0.164 HD
ATOM     44  O   UNL     1      -3.769   1.240  -1.647  1.00  0.00    -0.269 OA
BRANCH  42  45
ATOM     45  C   UNL     1      -2.545   3.186  -1.137  1.00  0.00     0.042 A 
ATOM     46  C   UNL     1      -2.926   3.785  -2.341  1.00  0.00     0.034 A 
ATOM     47  C   UNL     1      -1.834   3.937  -0.200  1.00  0.00     0.034 A 
ATOM     48  C   UNL     1      -2.573   5.104  -2.559  1.00  0.00     0.112 A 
ATOM     49  C   UNL     1      -1.525   5.250  -0.517  1.00  0.00     0.112 A 
ATOM     50  N   UNL     1      -1.877   5.849  -1.675  1.00  0.00    -0.265 NA
ENDBRANCH  42  45
ENDBRANCH  26  41
ENDBRANCH   1  26
TORSDOF 10
