REMARK SMILES Cc1ccc(O)c(C(=O)c2ccc(C(=O)N[C@@H]3[C@@H](C)CCN(Cc4ccc(F)cc4)C[C@H]3NC(=O)c3ccncc3)cc2)c1F
REMARK SMILES IDX 17 1 16 2 14 3 15 4 13 6 10 7 11 8 43 9 12 10 42 11 8 12
REMARK SMILES IDX 9 13 7 14 2 15 3 16 44 17 4 18 5 19 1 20 45 21 6 22 18 24
REMARK SMILES IDX 19 25 32 27 31 28 22 29 21 30 20 31 23 33 24 34 25 35 30 36
REMARK SMILES IDX 26 37 29 38 27 39 28 40 33 41 34 42 35 44 36 45 37 46 41 47
REMARK SMILES IDX 38 48 40 49 39 50
REMARK H PARENT 16 5 6 23 33 43
REMARK Flexibility Score:  124.900
ROOT
ATOM      1  C   UNL     1      -1.176   1.079   0.929  1.00  0.00     0.109 C 
ENDROOT
BRANCH   1   2
ATOM      2  N   UNL     1       0.137   0.433   1.097  1.00  0.00    -0.347 N 
ATOM      3  C   UNL     1       1.167   0.657   0.201  1.00  0.00     0.251 C 
ATOM      4  O   UNL     1       1.108   1.462  -0.721  1.00  0.00    -0.269 OA
ATOM      5  H   UNL     1       0.095  -0.537   1.411  1.00  0.00     0.164 HD
BRANCH   3   6
ATOM      6  C   UNL     1       2.391  -0.175   0.390  1.00  0.00     0.039 A 
ATOM      7  C   UNL     1       4.762  -1.659   0.686  1.00  0.00     0.023 A 
ATOM      8  C   UNL     1       3.889  -1.491   1.769  1.00  0.00     0.013 A 
ATOM      9  C   UNL     1       4.436  -1.094  -0.554  1.00  0.00     0.013 A 
ATOM     10  C   UNL     1       2.712  -0.750   1.626  1.00  0.00     0.014 A 
ATOM     11  C   UNL     1       3.259  -0.348  -0.696  1.00  0.00     0.014 A 
BRANCH   7  12
ATOM     12  C   UNL     1       6.008  -2.444   0.902  1.00  0.00     0.199 C 
ATOM     13  O   UNL     1       6.128  -3.159   1.895  1.00  0.00    -0.288 OA
BRANCH  12  14
ATOM     14  C   UNL     1       7.128  -2.359  -0.047  1.00  0.00     0.100 A 
ATOM     15  C   UNL     1       8.931  -1.048  -1.018  1.00  0.00    -0.014 A 
ATOM     16  C   UNL     1       9.316  -2.167  -1.769  1.00  0.00     0.010 A 
ATOM     17  C   UNL     1       7.828  -1.158  -0.163  1.00  0.00     0.141 A 
ATOM     18  C   UNL     1       8.620  -3.375  -1.655  1.00  0.00     0.047 A 
ATOM     19  C   UNL     1       7.527  -3.468  -0.795  1.00  0.00     0.129 A 
ATOM     20  C   UNL     1       9.651   0.260  -1.163  1.00  0.00     0.047 C 
ATOM     21  F   UNL     1       7.438  -0.081   0.541  1.00  0.00    -0.206 F 
BRANCH  19  22
ATOM     22  O   UNL     1       6.822  -4.634  -0.720  1.00  0.00    -0.507 OA
ATOM     23  H   UNL     1       7.332  -5.353  -1.125  1.00  0.00     0.293 HD
ENDBRANCH  19  22
ENDBRANCH  12  14
ENDBRANCH   7  12
ENDBRANCH   3   6
ENDBRANCH   1   2
BRANCH   1  24
ATOM     24  C   UNL     1      -1.273   2.484   1.586  1.00  0.00     0.012 CG0
ATOM     25  C   UNL     1      -0.009   3.348   1.482  1.00  0.00     0.010 C 
ATOM     26  G   UNL     1      -2.474   3.312   1.043  1.00  0.00     0.000 G0
ENDBRANCH   1  24
BRANCH   1  27
ATOM     27  C   UNL     1      -2.290   0.119   1.480  1.00  0.00     0.119 C 
BRANCH  27  28
ATOM     28  C   UNL     1      -3.577   0.792   2.015  1.00  0.00     0.112 C 
BRANCH  28  29
ATOM     29  N   UNL     1      -4.367   1.564   1.042  1.00  0.00    -0.297 NA
BRANCH  29  30
ATOM     30  C   UNL     1      -3.585   2.558   0.293  1.00  0.00     0.085 C 
BRANCH  30  31
ATOM     31  C   UNL     1      -2.474   3.312   1.043  1.00  0.00     0.021 CG0
ATOM     32  G   UNL     1      -1.273   2.484   1.586  1.00  0.00     0.000 G0
ENDBRANCH  30  31
ENDBRANCH  29  30
BRANCH  29  33
ATOM     33  C   UNL     1      -5.523   2.179   1.728  1.00  0.00     0.120 C 
BRANCH  33  34
ATOM     34  C   UNL     1      -6.625   2.608   0.779  1.00  0.00    -0.034 A 
ATOM     35  C   UNL     1      -7.053   3.945   0.742  1.00  0.00     0.008 A 
ATOM     36  C   UNL     1      -7.248   1.669  -0.061  1.00  0.00     0.008 A 
ATOM     37  C   UNL     1      -8.076   4.335  -0.124  1.00  0.00     0.039 A 
ATOM     38  C   UNL     1      -8.270   2.061  -0.926  1.00  0.00     0.039 A 
ATOM     39  C   UNL     1      -8.674   3.390  -0.950  1.00  0.00     0.123 A 
ATOM     40  F   UNL     1      -9.656   3.767  -1.779  1.00  0.00    -0.207 F 
ENDBRANCH  33  34
ENDBRANCH  29  33
ENDBRANCH  28  29
ENDBRANCH  27  28
BRANCH  27  41
ATOM     41  N   UNL     1      -2.633  -0.900   0.482  1.00  0.00    -0.346 N 
ATOM     42  C   UNL     1      -1.820  -1.982   0.240  1.00  0.00     0.251 C 
ATOM     43  H   UNL     1      -3.448  -0.707  -0.088  1.00  0.00     0.164 HD
ATOM     44  O   UNL     1      -0.816  -2.223   0.904  1.00  0.00    -0.269 OA
BRANCH  42  45
ATOM     45  C   UNL     1      -2.216  -2.884  -0.873  1.00  0.00     0.042 A 
ATOM     46  C   UNL     1      -2.921  -2.425  -1.986  1.00  0.00     0.034 A 
ATOM     47  C   UNL     1      -1.837  -4.225  -0.799  1.00  0.00     0.034 A 
ATOM     48  C   UNL     1      -3.238  -3.343  -2.972  1.00  0.00     0.112 A 
ATOM     49  C   UNL     1      -2.205  -5.061  -1.836  1.00  0.00     0.112 A 
ATOM     50  N   UNL     1      -2.903  -4.649  -2.917  1.00  0.00    -0.265 NA
ENDBRANCH  42  45
ENDBRANCH  27  41
ENDBRANCH   1  27
TORSDOF 9
