MODEL        3USER    Run = 3USERUSER    Estimated Free Energy of Binding    =  -8.67 kcal/mol  [=(1)+(2)+(3)-(4)]USERUSER    (1) Final Intermolecular Energy     = -13.14 kcal/molUSER        vdW + Hbond + desolv Energy     = -13.15 kcal/molUSER        Electrostatic Energy            =  -0.13 kcal/molUSER        Moving Ligand-Fixed Receptor    = -13.28 kcal/molUSER        Moving Ligand-Moving Receptor   =  +0.14 kcal/molUSER    (2) Final Total Internal Energy     =  -4.55 kcal/molUSER    (3) Torsional Free Energy           =  +4.47 kcal/molUSER    (4) Unbound System's Energy         =  -4.55 kcal/molUSERUSERREMARK SMILES Cc1ccc(O)c(C(=O)c2ccc(C(=O)N[C@@H]3[C@@H](C)CCN(Cc4ccc(F)cc4)C[C@H]3NC(=O)c3ccncc3)cc2)c1FREMARK SMILES IDX 17 1 16 2 14 3 15 4 13 6 10 7 11 8 43 9 12 10 42 11 8 12REMARK SMILES IDX 9 13 7 14 2 15 3 16 44 17 4 18 5 19 1 20 45 21 6 22 18 24REMARK SMILES IDX 19 25 32 27 31 28 22 29 21 30 20 31 23 33 24 34 25 35 30 36REMARK SMILES IDX 26 37 29 38 27 39 28 40 33 41 34 42 35 44 36 45 37 46 41 47REMARK SMILES IDX 38 48 40 49 39 50REMARK H PARENT 16 5 6 23 33 43REMARK Flexibility Score:  124.900USER                              x       y       z     vdW  Elec       q    TypeUSER                           _______ _______ _______ _____ _____    ______ ____ROOTATOM      1  C   UNL     1      38.553  43.336  23.534 -0.27 +0.01    +0.109 C  ENDROOTBRANCH   1   2ATOM      2  N   UNL     1      38.898  44.077  22.309 -0.09 -0.02    -0.347 N  ATOM      3  C   UNL     1      40.127  43.916  21.694 -0.16 +0.01    +0.251 C  ATOM      4  O   UNL     1      40.966  43.096  22.049 -0.24 -0.01    -0.269 OA ATOM      5  H   UNL     1      38.578  45.046  22.295 +0.08 +0.01    +0.164 HD BRANCH   3   6ATOM      6  C   UNL     1      40.416  44.837  20.556 -0.34 +0.00    +0.039 A  ATOM      7  C   UNL     1      40.892  46.658  18.466 -0.48 -0.00    +0.023 A  ATOM      8  C   UNL     1      41.941  45.895  18.997 -0.36 +0.00    +0.013 A  ATOM      9  C   UNL     1      39.597  46.495  18.976 -0.01 -0.00    +0.013 A  ATOM     10  C   UNL     1      41.708  44.992  20.039 -0.28 +0.00    +0.014 A  ATOM     11  C   UNL     1      39.364  45.594  20.023 -0.34 -0.00    +0.014 A  BRANCH   7  12ATOM     12  C   UNL     1      41.203  47.614  17.369 -0.38 -0.02    +0.199 C  ATOM     13  O   UNL     1      42.145  48.397  17.475 -0.58 -0.03    -0.288 OA BRANCH  12  14ATOM     14  C   UNL     1      40.377  47.664  16.154 -0.45 -0.02    +0.100 A  ATOM     15  C   UNL     1      38.719  46.602  14.726 -0.43 +0.00    -0.014 A  ATOM     16  C   UNL     1      38.723  47.739  13.906 -0.44 -0.00    +0.010 A  ATOM     17  C   UNL     1      39.558  46.577  15.846 -0.35 -0.03    +0.141 A  ATOM     18  C   UNL     1      39.539  48.833  14.211 -0.22 -0.02    +0.047 A  ATOM     19  C   UNL     1      40.365  48.793  15.333 -0.49 -0.04    +0.129 A  ATOM     20  C   UNL     1      37.873  45.411  14.384 -0.42 -0.01    +0.047 C  ATOM     21  F   UNL     1      39.578  45.479  16.622 -0.04 +0.03    -0.206 F  BRANCH  19  22ATOM     22  O   UNL     1      41.194  49.843  15.602 -0.55 +0.10    -0.507 OA ATOM     23  H   UNL     1      41.237  49.991  16.560 +0.18 -0.03    +0.293 HD ENDBRANCH  19  22ENDBRANCH  12  14ENDBRANCH   7  12ENDBRANCH   3   6ENDBRANCH   1   2BRANCH   1  24ATOM     24  C   UNL     1      37.112  42.753  23.530 -0.45 +0.00    +0.012 CG0ATOM     25  C   UNL     1      36.815  41.740  22.416 -0.60 +0.00    +0.010 C  ATOM     26  G   UNL     1      36.730  42.105  24.892 +0.00 +0.00    +0.000 G0 ENDBRANCH   1  24BRANCH   1  27ATOM     27  C   UNL     1      38.782  44.269  24.776 -0.18 +0.00    +0.119 C  BRANCH  27  28ATOM     28  C   UNL     1      39.001  43.565  26.136 -0.17 -0.00    +0.112 C  BRANCH  28  29ATOM     29  N   UNL     1      37.793  43.276  26.927 -0.11 +0.03    -0.297 NA BRANCH  29  30ATOM     30  C   UNL     1      36.593  43.029  26.115 -0.39 -0.01    +0.085 C  BRANCH  30  31ATOM     31  C   UNL     1      36.729  42.105  24.893 -0.46 -0.00    +0.021 CG0ATOM     32  G   UNL     1      37.111  42.753  23.531 +0.00 +0.00    +0.000 G0 ENDBRANCH  30  31ENDBRANCH  29  30BRANCH  29  33ATOM     33  C   UNL     1      37.579  44.361  27.907 -0.31 -0.02    +0.120 C  BRANCH  33  34ATOM     34  C   UNL     1      37.737  45.747  27.312 -0.28 +0.00    -0.034 A  ATOM     35  C   UNL     1      36.639  46.405  26.737 +0.06 -0.00    +0.008 A  ATOM     36  C   UNL     1      38.991  46.382  27.310 -0.07 -0.00    +0.008 A  ATOM     37  C   UNL     1      36.790  47.676  26.179 -0.34 -0.00    +0.039 A  ATOM     38  C   UNL     1      39.140  47.652  26.752 -0.21 +0.00    +0.039 A  ATOM     39  C   UNL     1      38.039  48.287  26.193 -0.26 +0.00    +0.123 A  ATOM     40  F   UNL     1      38.181  49.506  25.656 -0.02 -0.03    -0.207 F  ENDBRANCH  33  34ENDBRANCH  29  33ENDBRANCH  28  29ENDBRANCH  27  28BRANCH  27  41ATOM     41  N   UNL     1      39.875  45.213  24.517 -0.02 -0.01    -0.346 N  ATOM     42  C   UNL     1      39.664  46.407  23.868 -0.18 +0.02    +0.251 C  ATOM     43  H   UNL     1      40.806  44.890  24.751 +0.06 +0.01    +0.164 HD ATOM     44  O   UNL     1      38.547  46.808  23.556 -0.34 -0.04    -0.269 OA BRANCH  42  45ATOM     45  C   UNL     1      40.866  47.227  23.563 -0.23 +0.00    +0.042 A  ATOM     46  C   UNL     1      41.846  46.802  22.665 -0.23 +0.00    +0.034 A  ATOM     47  C   UNL     1      40.988  48.471  24.182 -0.33 +0.01    +0.034 A  ATOM     48  C   UNL     1      42.925  47.640  22.445 -0.28 +0.02    +0.112 A  ATOM     49  C   UNL     1      42.106  49.232  23.895 -0.31 +0.03    +0.112 A  ATOM     50  N   UNL     1      43.079  48.839  23.045 -0.81 -0.08    -0.265 NA ENDBRANCH  42  45ENDBRANCH  27  41ENDBRANCH   1  27TORSDOF 9TERENDMDL