MODEL        5USER    Run = 5USERUSER    Estimated Free Energy of Binding    =  -7.21 kcal/mol  [=(1)+(2)+(3)-(4)]USERUSER    (1) Final Intermolecular Energy     = -11.39 kcal/molUSER        vdW + Hbond + desolv Energy     = -11.37 kcal/molUSER        Electrostatic Energy            =  -0.27 kcal/molUSER        Moving Ligand-Fixed Receptor    = -11.64 kcal/molUSER        Moving Ligand-Moving Receptor   =  +0.25 kcal/molUSER    (2) Final Total Internal Energy     =  -3.53 kcal/molUSER    (3) Torsional Free Energy           =  +4.18 kcal/molUSER    (4) Unbound System's Energy         =  -3.53 kcal/molUSERUSERREMARK SMILES COc1ccc(O)c(C(=O)c2ccc(C(=O)N[C@@H]3CCCNC[C@H]3NC(=O)c3ccncc3)cc2)c1FREMARK SMILES IDX 15 1 16 2 17 3 14 5 11 6 12 7 35 8 13 9 34 10 9 11 10 12REMARK SMILES IDX 8 13 3 14 4 15 36 16 5 17 6 18 37 19 2 20 1 21 7 22 18 24REMARK SMILES IDX 19 25 24 27 23 28 22 29 21 31 20 32 25 34 26 35 27 37 28 38REMARK SMILES IDX 29 39 33 40 30 41 32 42 31 43REMARK H PARENT 17 4 7 23 22 30 25 36REMARK Flexibility Score:   88.900USER                              x       y       z     vdW  Elec       q    TypeUSER                           _______ _______ _______ _____ _____    ______ ____ROOTATOM      1  C   UNL     1      37.826  44.979  18.196 -0.26 -0.05    +0.251 C  ATOM      2  O   UNL     1      37.832  45.391  17.042 -0.23 +0.08    -0.269 OA ATOM      3  N   UNL     1      36.732  44.372  18.779 -0.12 +0.06    -0.347 N  ATOM      4  H   UNL     1      36.735  44.251  19.782 +0.11 -0.01    +0.164 HD ENDROOTBRANCH   1   5ATOM      5  C   UNL     1      39.011  45.188  19.075 -0.38 -0.00    +0.039 A  ATOM      6  C   UNL     1      41.231  45.446  20.767 -0.33 +0.00    +0.023 A  ATOM      7  C   UNL     1      40.152  44.641  21.146 -0.31 +0.00    +0.013 A  ATOM      8  C   UNL     1      41.200  46.123  19.543 -0.43 +0.00    +0.013 A  ATOM      9  C   UNL     1      39.040  44.522  20.307 -0.34 -0.00    +0.014 A  ATOM     10  C   UNL     1      40.086  46.003  18.701 -0.44 -0.00    +0.014 A  BRANCH   6  11ATOM     11  C   UNL     1      42.417  45.476  21.651 -0.21 +0.04    +0.199 C  ATOM     12  O   UNL     1      43.140  44.478  21.684 -0.15 -0.09    -0.288 OA BRANCH  11  13ATOM     13  C   UNL     1      42.818  46.648  22.463 -0.21 +0.02    +0.104 A  ATOM     14  C   UNL     1      42.302  48.490  23.978 -0.30 +0.03    +0.155 A  ATOM     15  C   UNL     1      43.650  48.858  23.993 -0.24 +0.02    +0.053 A  ATOM     16  C   UNL     1      41.899  47.383  23.213 -0.18 +0.02    +0.179 A  ATOM     17  C   UNL     1      44.585  48.114  23.269 -0.24 +0.01    +0.051 A  ATOM     18  C   UNL     1      44.172  47.012  22.524 -0.23 +0.05    +0.130 A  ATOM     19  F   UNL     1      40.606  47.021  23.239 -0.06 -0.02    -0.202 F  BRANCH  14  20ATOM     20  O   UNL     1      41.299  49.131  24.658 -0.19 -0.10    -0.494 OA ATOM     21  C   UNL     1      40.875  48.551  25.887 -0.19 +0.03    +0.278 C  ENDBRANCH  14  20BRANCH  18  22ATOM     22  O   UNL     1      45.162  46.324  21.872 -0.54 -0.65    -0.507 OA ATOM     23  H   UNL     1      45.053  45.369  22.095 +0.09 +0.28    +0.293 HD ENDBRANCH  18  22ENDBRANCH  11  13ENDBRANCH   6  11ENDBRANCH   1   5BRANCH   3  24ATOM     24  C   UNL     1      35.428  44.365  18.105 -0.31 -0.03    +0.106 C  BRANCH  24  25ATOM     25  C   UNL     1      34.338  43.923  19.090 -0.43 -0.01    +0.028 CG0ATOM     26  G   UNL     1      32.918  44.430  18.786 +0.00 +0.00    +0.000 G0 ENDBRANCH  24  25BRANCH  24  27ATOM     27  C   UNL     1      35.492  43.508  16.809 -0.35 -0.04    +0.118 C  BRANCH  27  28ATOM     28  C   UNL     1      34.154  42.850  16.395 -0.37 -0.05    +0.108 C  BRANCH  28  29ATOM     29  N   UNL     1      32.968  43.712  16.360 -0.12 +0.14    -0.315 NA ATOM     30  H   UNL     1      33.226  44.645  16.048 +0.09 -0.07    +0.122 HD BRANCH  29  31ATOM     31  C   UNL     1      32.199  43.800  17.596 -0.30 -0.02    +0.081 C  BRANCH  31  32ATOM     32  C   UNL     1      32.919  44.431  18.785 -0.44 -0.00    +0.017 CG0ATOM     33  G   UNL     1      34.339  43.924  19.087 +0.00 +0.00    +0.000 G0 ENDBRANCH  31  32ENDBRANCH  29  31ENDBRANCH  28  29ENDBRANCH  27  28BRANCH  27  34ATOM     34  N   UNL     1      36.053  44.300  15.707 -0.14 +0.14    -0.346 N  ATOM     35  C   UNL     1      35.429  45.436  15.245 -0.23 -0.17    +0.251 C  ATOM     36  H   UNL     1      37.026  44.156  15.488 +0.10 -0.05    +0.164 HD ATOM     37  O   UNL     1      34.336  45.819  15.642 -0.23 +0.29    -0.269 OA BRANCH  35  38ATOM     38  C   UNL     1      36.168  46.228  14.231 -0.41 -0.03    +0.042 A  ATOM     39  C   UNL     1      37.294  46.941  14.642 -0.41 -0.02    +0.034 A  ATOM     40  C   UNL     1      35.752  46.297  12.901 -0.53 -0.02    +0.034 A  ATOM     41  C   UNL     1      37.975  47.679  13.694 -0.43 -0.04    +0.112 A  ATOM     42  C   UNL     1      36.503  47.066  12.030 -0.59 -0.05    +0.112 A  ATOM     43  N   UNL     1      37.608  47.754  12.397 -0.88 +0.02    -0.265 NA ENDBRANCH  35  38ENDBRANCH  27  34ENDBRANCH  24  27ENDBRANCH   3  24TORSDOF 8TERENDMDL