MODEL        6USER    Run = 6USERUSER    Estimated Free Energy of Binding    = -12.52 kcal/mol  [=(1)+(2)+(3)-(4)]USERUSER    (1) Final Intermolecular Energy     = -14.31 kcal/molUSER        vdW + Hbond + desolv Energy     = -14.19 kcal/molUSER        Electrostatic Energy            =  -0.12 kcal/molUSER        Moving Ligand-Fixed Receptor    = -14.31 kcal/molUSER        Moving Ligand-Moving Receptor   =  +0.00 kcal/molUSER    (2) Final Total Internal Energy     =  -1.94 kcal/molUSER    (3) Torsional Free Energy           =  +1.79 kcal/molUSER    (4) Unbound System's Energy         =  -1.94 kcal/molUSERUSERREMARK SMILES Oc1nc2ccccc2n1C1CCN(Cc2ccc(-c3cc4ccccc4nc3-c3ccccc3)cc2)CC1REMARK SMILES IDX 11 1 12 2 13 3 14 4 38 5 39 6 10 7 2 8 3 9 4 10 9 11 5 12REMARK SMILES IDX 8 13 6 14 7 15 1 16 15 18 16 19 17 20 37 21 18 22 36 23REMARK SMILES IDX 19 24 20 25 21 26 29 27 22 28 28 29 23 30 27 31 24 32 26 33REMARK SMILES IDX 25 34 30 35 31 36 35 37 32 38 34 39 33 40REMARK H PARENT 1 17USER                              x       y       z     vdW  Elec       q    TypeUSER                           _______ _______ _______ _____ _____    ______ ____ROOTATOM      1  C   UNL     1      31.262  39.932  17.394 -0.26 -0.01    +0.095 C  ATOM      2  C   UNL     1      32.437  40.781  17.901 -0.44 -0.01    +0.041 C  ATOM      3  C   UNL     1      32.059  42.191  18.341 -0.34 -0.01    +0.087 C  ATOM      4  N   UNL     1      31.170  42.892  17.411 -0.10 +0.07    -0.299 NA ATOM      5  C   UNL     1      29.931  42.136  17.211 -0.25 -0.02    +0.087 C  ATOM      6  C   UNL     1      30.136  40.712  16.699 -0.41 -0.01    +0.041 C  ENDROOTBRANCH   1   7ATOM      7  N   UNL     1      30.800  38.922  18.345 -0.22 -0.04    -0.291 N  ATOM      8  C   UNL     1      31.563  37.849  18.737 -0.28 +0.07    +0.295 A  ATOM      9  N   UNL     1      30.958  37.050  19.569 -0.65 -0.08    -0.195 NA ATOM     10  C   UNL     1      29.727  37.623  19.747 -0.31 +0.02    +0.092 A  ATOM     11  C   UNL     1      29.593  38.804  19.003 -0.31 +0.01    +0.072 A  ATOM     12  C   UNL     1      28.664  37.171  20.547 -0.30 -0.00    +0.031 A  ATOM     13  C   UNL     1      28.413  39.557  19.051 -0.21 +0.00    +0.029 A  ATOM     14  C   UNL     1      27.484  37.916  20.593 -0.29 -0.00    +0.002 A  ATOM     15  C   UNL     1      27.365  39.091  19.857 -0.25 -0.00    +0.002 A  BRANCH   8  16ATOM     16  O   UNL     1      32.795  37.611  18.336 -0.21 -0.03    -0.480 OA ATOM     17  H   UNL     1      33.141  38.518  18.247 +0.19 -0.03    +0.296 HD ENDBRANCH   8  16ENDBRANCH   1   7BRANCH   4  18ATOM     18  C   UNL     1      31.852  43.261  16.160 -0.31 -0.05    +0.120 C  BRANCH  18  19ATOM     19  C   UNL     1      33.236  43.834  16.381 -0.30 +0.02    -0.034 A  ATOM     20  C   UNL     1      33.406  45.134  16.873 -0.33 -0.00    +0.006 A  ATOM     21  C   UNL     1      34.372  43.066  16.096 -0.36 -0.00    +0.006 A  ATOM     22  C   UNL     1      34.688  45.655  17.072 -0.35 -0.01    +0.009 A  ATOM     23  C   UNL     1      35.652  43.592  16.287 -0.39 -0.00    +0.009 A  ATOM     24  C   UNL     1      35.829  44.895  16.773 -0.31 +0.01    -0.016 A  BRANCH  24  25ATOM     25  C   UNL     1      37.177  45.443  16.983 -0.35 -0.00    +0.009 A  ATOM     26  C   UNL     1      37.816  45.235  18.215 -0.36 -0.00    +0.021 A  ATOM     27  C   UNL     1      37.899  46.144  16.003 -0.32 -0.03    +0.079 A  ATOM     28  C   UNL     1      39.118  45.700  18.438 -0.42 -0.00    +0.001 A  ATOM     29  N   UNL     1      39.172  46.590  16.202 -0.24 +0.07    -0.247 NA ATOM     30  C   UNL     1      39.777  45.501  19.664 -0.40 -0.00    +0.010 A  ATOM     31  C   UNL     1      39.763  46.377  17.388 -0.42 -0.01    +0.071 A  ATOM     32  C   UNL     1      41.075  45.971  19.852 -0.41 +0.00    +0.001 A  ATOM     33  C   UNL     1      41.057  46.836  17.600 -0.48 -0.00    +0.029 A  ATOM     34  C   UNL     1      41.718  46.641  18.816 -0.52 +0.00    +0.002 A  BRANCH  27  35ATOM     35  C   UNL     1      37.368  46.474  14.666 -0.41 -0.00    +0.001 A  ATOM     36  C   UNL     1      37.222  45.471  13.691 -0.45 -0.00    +0.010 A  ATOM     37  C   UNL     1      37.014  47.788  14.315 -0.51 -0.01    +0.010 A  ATOM     38  C   UNL     1      36.717  45.767  12.421 -0.60 -0.00    +0.001 A  ATOM     39  C   UNL     1      36.510  48.086  13.046 -0.62 -0.00    +0.001 A  ATOM     40  C   UNL     1      36.358  47.074  12.100 -0.69 -0.00    +0.000 A  ENDBRANCH  27  35ENDBRANCH  24  25ENDBRANCH  18  19ENDBRANCH   4  18TORSDOF 6TERENDMDL