MODEL        6USER    Run = 6USERUSER    Estimated Free Energy of Binding    = -12.83 kcal/mol  [=(1)+(2)+(3)-(4)]USERUSER    (1) Final Intermolecular Energy     = -15.22 kcal/molUSER        vdW + Hbond + desolv Energy     = -15.09 kcal/molUSER        Electrostatic Energy            =  -0.13 kcal/molUSER        Moving Ligand-Fixed Receptor    = -15.22 kcal/molUSER        Moving Ligand-Moving Receptor   =  +0.00 kcal/molUSER    (2) Final Total Internal Energy     =  -2.58 kcal/molUSER    (3) Torsional Free Energy           =  +2.39 kcal/molUSER    (4) Unbound System's Energy         =  -2.58 kcal/molUSERUSERREMARK SMILES N#Cc1cnc(-c2ccc(CNCc3ccc(-c4csnn4)cc3)cc2)c(-c2ccccc2)c1REMARK SMILES IDX 11 1 10 2 7 3 8 4 26 5 9 6 25 7 6 8 3 9 4 10 34 11 5 12REMARK SMILES IDX 27 13 2 14 1 15 28 16 29 17 33 18 30 19 32 20 31 21 12 22REMARK SMILES IDX 13 24 14 25 15 26 24 27 16 28 23 29 17 30 18 31 19 32 22 33REMARK SMILES IDX 20 34 21 35REMARK H PARENT 12 23USER                              x       y       z     vdW  Elec       q    TypeUSER                           _______ _______ _______ _____ _____    ______ ____ROOTATOM      1  C   UNL     1      36.060  43.483  20.392 -0.41 -0.00    +0.117 C  ENDROOTBRANCH   1   2ATOM      2  C   UNL     1      35.230  43.985  19.234 -0.36 +0.01    -0.034 A  ATOM      3  C   UNL     1      33.647  44.951  17.084 -0.33 -0.00    +0.001 A  ATOM      4  C   UNL     1      33.796  43.573  17.318 -0.31 -0.00    +0.011 A  ATOM      5  C   UNL     1      34.322  45.835  17.941 -0.45 -0.01    +0.011 A  ATOM      6  C   UNL     1      34.570  43.094  18.381 -0.36 -0.00    +0.006 A  ATOM      7  C   UNL     1      35.095  45.360  19.006 -0.24 -0.00    +0.006 A  BRANCH   3   8ATOM      8  C   UNL     1      32.821  45.430  15.956 -0.24 -0.07    +0.078 A  ATOM      9  C   UNL     1      31.036  46.240  14.004 -0.52 -0.04    +0.071 A  ATOM     10  C   UNL     1      30.630  45.837  15.261 -0.37 -0.06    +0.131 A  ATOM     11  C   UNL     1      32.403  46.244  13.730 -0.09 -0.03    +0.032 A  ATOM     12  N   UNL     1      31.484  45.442  16.233 -0.71 +0.09    -0.254 NA ATOM     13  C   UNL     1      33.334  45.840  14.707 -0.16 -0.01    +0.009 A  BRANCH   9  14ATOM     14  C   UNL     1      30.079  46.648  13.026 -0.56 -0.06    +0.101 C  ATOM     15  N   UNL     1      29.302  46.980  12.233 -0.74 +0.10    -0.192 NA ENDBRANCH   9  14BRANCH  13  16ATOM     16  C   UNL     1      34.771  45.903  14.385 -0.31 +0.01    -0.016 A  ATOM     17  C   UNL     1      35.276  46.919  13.555 -0.41 -0.01    +0.009 A  ATOM     18  C   UNL     1      35.675  44.966  14.910 -0.32 -0.00    +0.009 A  ATOM     19  C   UNL     1      36.638  46.988  13.251 -0.59 -0.00    +0.001 A  ATOM     20  C   UNL     1      37.036  45.033  14.605 -0.39 -0.00    +0.001 A  ATOM     21  C   UNL     1      37.517  46.043  13.775 -0.45 -0.00    +0.000 A  ENDBRANCH  13  16ENDBRANCH   3   8ENDBRANCH   1   2BRANCH   1  22ATOM     22  N   UNL     1      37.163  44.403  20.668 -0.20 +0.00    -0.309 NA ATOM     23  H   UNL     1      37.318  44.420  21.675 +0.06 +0.01    +0.123 HD BRANCH  22  24ATOM     24  C   UNL     1      38.401  43.997  20.004 -0.26 -0.00    +0.117 C  BRANCH  24  25ATOM     25  C   UNL     1      38.938  45.035  19.047 -0.38 +0.00    -0.034 A  ATOM     26  C   UNL     1      38.184  45.448  17.941 -0.38 -0.00    +0.006 A  ATOM     27  C   UNL     1      40.209  45.588  19.236 -0.44 -0.00    +0.006 A  ATOM     28  C   UNL     1      38.688  46.404  17.050 -0.40 -0.00    +0.011 A  ATOM     29  C   UNL     1      40.714  46.541  18.347 -0.49 -0.00    +0.011 A  ATOM     30  C   UNL     1      39.958  46.967  17.245 -0.49 -0.00    +0.003 A  BRANCH  30  31ATOM     31  C   UNL     1      40.512  47.965  16.336 -0.47 -0.02    +0.105 A  ATOM     32  C   UNL     1      40.205  48.062  14.989 -0.45 -0.03    +0.118 A  ATOM     33  N   UNL     1      41.403  48.936  16.791 -1.01 -0.00    -0.138 NA ATOM     34  S   UNL     1      41.087  49.389  14.352 -0.83 +0.00    -0.020 S  ATOM     35  N   UNL     1      41.789  49.751  15.825 -1.04 -0.01    -0.091 NA ENDBRANCH  30  31ENDBRANCH  24  25ENDBRANCH  22  24ENDBRANCH   1  22TORSDOF 8TERENDMDL