MODEL        2USER    Run = 2USERUSER    Estimated Free Energy of Binding    = -12.43 kcal/mol  [=(1)+(2)+(3)-(4)]USERUSER    (1) Final Intermolecular Energy     = -14.22 kcal/molUSER        vdW + Hbond + desolv Energy     = -14.15 kcal/molUSER        Electrostatic Energy            =  -0.07 kcal/molUSER        Moving Ligand-Fixed Receptor    = -14.22 kcal/molUSER        Moving Ligand-Moving Receptor   =  +0.00 kcal/molUSER    (2) Final Total Internal Energy     =  -0.49 kcal/molUSER    (3) Torsional Free Energy           =  +1.79 kcal/molUSER    (4) Unbound System's Energy         =  -0.49 kcal/molUSERUSERREMARK SMILES Cn1ccc2ccc3c4[nH]c5c(CCCN[C@H]6CC[C@H](O)CC6)cccc5c4c4c(c3c21)C(=O)NC4=OREMARK SMILES IDX 15 1 14 2 13 3 12 4 2 5 3 6 32 7 4 8 31 9 5 10 30 11 8 12REMARK SMILES IDX 6 13 29 14 33 15 7 16 9 17 28 18 36 19 35 20 10 21 27 22REMARK SMILES IDX 11 23 26 24 25 25 24 26 1 27 34 28 37 29 16 32 17 34 23 35REMARK SMILES IDX 18 36 22 37 19 38 20 39 21 40REMARK H PARENT 35 30 10 31 16 33 21 41USER                              x       y       z     vdW  Elec       q    TypeUSER                           _______ _______ _______ _____ _____    ______ ____ROOTATOM      1  C   UNL     1      37.252  42.117  24.884 -0.39 -0.00    +0.081 C  ENDROOTBRANCH   1   2ATOM      2  C   UNL     1      37.784  43.400  24.238 -0.35 +0.00    +0.020 C  BRANCH   2   3ATOM      3  C   UNL     1      38.498  43.149  22.905 -0.34 +0.00    +0.039 C  BRANCH   3   4ATOM      4  C   UNL     1      37.567  42.983  21.729 -0.37 -0.00    -0.024 A  ATOM      5  N   UNL     1      39.201  48.218  15.009 -0.24 +0.14    -0.350 N  ATOM      6  C   UNL     1      40.311  48.963  14.687 -0.47 -0.03    +0.086 A  ATOM      7  C   UNL     1      39.465  47.394  16.098 -0.45 -0.02    +0.057 A  ATOM      8  C   UNL     1      41.230  48.798  15.688 -0.52 -0.00    +0.028 A  ATOM      9  C   UNL     1      38.745  46.321  16.745 -0.40 -0.01    +0.022 A  ATOM     10  C   UNL     1      40.680  47.878  16.618 -0.55 -0.00    +0.000 A  ATOM     11  C   UNL     1      37.662  45.573  16.257 -0.32 -0.02    +0.063 A  ATOM     12  C   UNL     1      39.208  45.970  18.051 -0.42 -0.00    +0.009 A  ATOM     13  C   UNL     1      41.144  47.419  17.861 -0.52 -0.00    +0.011 A  ATOM     14  C   UNL     1      36.969  44.646  17.045 -0.30 -0.02    +0.063 A  ATOM     15  C   UNL     1      37.107  45.419  14.901 -0.26 -0.11    +0.259 C  ATOM     16  C   UNL     1      40.383  46.512  18.592 -0.44 -0.00    +0.012 A  ATOM     17  C   UNL     1      38.473  45.023  18.832 -0.36 -0.01    +0.055 A  ATOM     18  C   UNL     1      37.332  44.360  18.363 -0.33 -0.00    +0.022 A  ATOM     19  C   UNL     1      35.923  44.044  16.220 -0.25 -0.10    +0.259 C  ATOM     20  N   UNL     1      35.996  44.647  15.008 -0.17 +0.13    -0.288 N  ATOM     21  N   UNL     1      38.681  44.564  20.115 -0.14 +0.01    -0.354 N  ATOM     22  C   UNL     1      36.855  43.510  19.418 -0.31 -0.00    +0.008 A  ATOM     23  C   UNL     1      37.720  43.663  20.503 -0.30 -0.00    +0.050 A  ATOM     24  C   UNL     1      35.769  42.623  19.562 -0.42 -0.00    +0.011 A  ATOM     25  C   UNL     1      35.587  41.930  20.763 -0.40 +0.00    +0.001 A  ATOM     26  C   UNL     1      36.470  42.109  21.822 -0.52 +0.00    +0.006 A  ATOM     27  C   UNL     1      37.916  48.522  14.415 -0.48 -0.09    +0.149 C  ATOM     28  O   UNL     1      37.595  45.800  13.857 -0.28 +0.09    -0.269 OA ATOM     29  O   UNL     1      35.171  43.140  16.516 -0.29 +0.10    -0.269 OA ATOM     30  H   UNL     1      35.513  44.280  14.202 +0.15 -0.07    +0.173 HD ATOM     31  H   UNL     1      39.433  44.868  20.714 +0.10 +0.00    +0.167 HD ENDBRANCH   3   4ENDBRANCH   2   3ENDBRANCH   1   2BRANCH   1  32ATOM     32  N   UNL     1      36.867  42.399  26.268 -0.17 +0.04    -0.314 NA ATOM     33  H   UNL     1      36.282  41.647  26.628 +0.06 -0.03    +0.122 HD BRANCH  32  34ATOM     34  C   UNL     1      36.176  43.688  26.416 -0.44 -0.01    +0.053 C  ATOM     35  C   UNL     1      34.699  43.536  26.835 -0.42 -0.00    +0.021 C  ATOM     36  C   UNL     1      36.984  44.517  27.435 -0.43 -0.00    +0.021 C  ATOM     37  C   UNL     1      34.510  43.627  28.348 -0.65 -0.01    +0.033 C  ATOM     38  C   UNL     1      36.120  45.598  28.073 -0.39 -0.01    +0.033 C  ATOM     39  C   UNL     1      34.975  44.985  28.885 -0.41 -0.03    +0.114 C  BRANCH  39  40ATOM     40  O   UNL     1      33.888  45.909  28.868 -0.56 +0.05    -0.393 OA ATOM     41  H   UNL     1      34.002  46.483  28.090 -0.44 -0.08    +0.210 HD ENDBRANCH  39  40ENDBRANCH  32  34ENDBRANCH   1  32TORSDOF 6TERENDMDL