MODEL        3USER    Run = 3USERUSER    Estimated Free Energy of Binding    =  -6.41 kcal/mol  [=(1)+(2)+(3)-(4)]USERUSER    (1) Final Intermolecular Energy     = -10.88 kcal/molUSER        vdW + Hbond + desolv Energy     = -10.92 kcal/molUSER        Electrostatic Energy            =  -0.23 kcal/molUSER        Moving Ligand-Fixed Receptor    = -11.16 kcal/molUSER        Moving Ligand-Moving Receptor   =  +0.28 kcal/molUSER    (2) Final Total Internal Energy     =  -3.33 kcal/molUSER    (3) Torsional Free Energy           =  +4.47 kcal/molUSER    (4) Unbound System's Energy         =  -3.33 kcal/molUSERUSERREMARK SMILES COc1ccc(O)c(C(=O)c2ccc(CO[C@@H]3CCCNC[C@@H]3NC(=O)c3ccncc3)cc2)c1FREMARK SMILES IDX 16 1 15 2 14 3 11 4 12 5 34 6 13 7 33 8 9 9 10 10 8 11 3 12REMARK SMILES IDX 4 13 35 14 5 15 6 16 36 17 2 18 1 19 7 20 17 22 18 23 23 25REMARK SMILES IDX 22 26 21 27 20 29 19 30 24 32 25 33 26 35 27 36 28 37 32 38REMARK SMILES IDX 29 39 31 40 30 41REMARK H PARENT 7 21 21 28 24 34REMARK Flexibility Score:   99.900USER                              x       y       z     vdW  Elec       q    TypeUSER                           _______ _______ _______ _____ _____    ______ ____ROOTATOM      1  O   UNL     1      38.252  43.611  23.895 -0.10 -0.02    -0.371 OA ENDROOTBRANCH   1   2ATOM      2  C   UNL     1      38.779  42.733  22.903 -0.23 +0.02    +0.196 C  BRANCH   2   3ATOM      3  C   UNL     1      39.401  43.569  21.815 -0.19 -0.00    -0.022 A  ATOM      4  C   UNL     1      40.583  45.143  19.810 -0.39 +0.00    +0.023 A  ATOM      5  C   UNL     1      41.377  44.307  20.602 -0.34 +0.00    +0.012 A  ATOM      6  C   UNL     1      39.197  45.168  19.999 -0.37 -0.00    +0.012 A  ATOM      7  C   UNL     1      40.787  43.531  21.602 -0.22 +0.00    +0.007 A  ATOM      8  C   UNL     1      38.610  44.390  20.999 -0.35 +0.00    +0.007 A  BRANCH   4   9ATOM      9  C   UNL     1      41.159  45.959  18.714 -0.40 +0.00    +0.199 C  ATOM     10  O   UNL     1      42.362  46.233  18.741 -0.32 -0.04    -0.288 OA BRANCH   9  11ATOM     11  C   UNL     1      40.352  46.521  17.611 -0.42 -0.01    +0.104 A  ATOM     12  C   UNL     1      38.496  46.394  16.036 -0.29 -0.05    +0.155 A  ATOM     13  C   UNL     1      38.845  47.646  15.525 -0.45 -0.02    +0.053 A  ATOM     14  C   UNL     1      39.260  45.839  17.072 -0.28 -0.03    +0.179 A  ATOM     15  C   UNL     1      39.957  48.323  16.034 -0.51 -0.02    +0.051 A  ATOM     16  C   UNL     1      40.711  47.756  17.059 -0.43 -0.02    +0.130 A  ATOM     17  F   UNL     1      38.935  44.619  17.530 -0.07 +0.03    -0.202 F  BRANCH  12  18ATOM     18  O   UNL     1      37.442  45.631  15.608 -0.05 +0.20    -0.494 OA ATOM     19  C   UNL     1      36.142  46.014  16.038 -0.22 -0.19    +0.278 C  ENDBRANCH  12  18BRANCH  16  20ATOM     20  O   UNL     1      41.801  48.471  17.478 -0.57 -0.02    -0.507 OA ATOM     21  H   UNL     1      42.553  47.842  17.579 -0.28 -0.02    +0.293 HD ENDBRANCH  16  20ENDBRANCH   9  11ENDBRANCH   4   9ENDBRANCH   2   3ENDBRANCH   1   2BRANCH   1  22ATOM     22  C   UNL     1      38.909  43.492  25.175 -0.17 +0.00    +0.142 C  BRANCH  22  23ATOM     23  C   UNL     1      38.084  42.446  25.939 -0.33 -0.00    +0.035 CG0ATOM     24  G   UNL     1      36.562  42.516  25.889 +0.00 +0.00    +0.000 G0 ENDBRANCH  22  23BRANCH  22  25ATOM     25  C   UNL     1      39.008  44.889  25.833 -0.15 +0.00    +0.125 C  BRANCH  25  26ATOM     26  C   UNL     1      37.650  45.631  25.765 -0.30 +0.00    +0.108 C  BRANCH  26  27ATOM     27  N   UNL     1      36.524  44.893  25.196 -0.29 -0.02    -0.315 NA ATOM     28  H   UNL     1      36.830  44.467  24.319 +0.05 +0.02    +0.122 HD BRANCH  27  29ATOM     29  C   UNL     1      35.946  43.892  26.080 -0.35 -0.01    +0.081 C  BRANCH  29  30ATOM     30  C   UNL     1      36.562  42.514  25.888 -0.47 -0.00    +0.018 CG0ATOM     31  G   UNL     1      38.084  42.446  25.936 +0.00 +0.00    +0.000 G0 ENDBRANCH  29  30ENDBRANCH  27  29ENDBRANCH  26  27ENDBRANCH  25  26BRANCH  25  32ATOM     32  N   UNL     1      40.140  45.654  25.289 -0.01 -0.01    -0.345 N  ATOM     33  C   UNL     1      40.020  46.379  24.121 -0.14 +0.02    +0.251 C  ATOM     34  H   UNL     1      40.757  46.046  25.989 +0.05 +0.01    +0.164 HD ATOM     35  O   UNL     1      39.026  46.359  23.407 -0.24 -0.03    -0.269 OA BRANCH  33  36ATOM     36  C   UNL     1      41.172  47.252  23.769 -0.22 +0.00    +0.042 A  ATOM     37  C   UNL     1      42.032  46.834  22.754 -0.23 +0.00    +0.034 A  ATOM     38  C   UNL     1      41.430  48.445  24.443 -0.33 +0.01    +0.034 A  ATOM     39  C   UNL     1      43.112  47.641  22.442 -0.28 +0.02    +0.112 A  ATOM     40  C   UNL     1      42.539  49.179  24.057 -0.27 +0.04    +0.112 A  ATOM     41  N   UNL     1      43.379  48.806  23.069 -0.73 -0.08    -0.265 NA ENDBRANCH  33  36ENDBRANCH  25  32ENDBRANCH  22  25ENDBRANCH   1  22TORSDOF 9TERENDMDL