MODEL        4USER    Run = 4USERUSER    Estimated Free Energy of Binding    =  -5.92 kcal/mol  [=(1)+(2)+(3)-(4)]USERUSER    (1) Final Intermolecular Energy     = -10.39 kcal/molUSER        vdW + Hbond + desolv Energy     = -10.62 kcal/molUSER        Electrostatic Energy            =  -0.13 kcal/molUSER        Moving Ligand-Fixed Receptor    = -10.75 kcal/molUSER        Moving Ligand-Moving Receptor   =  +0.36 kcal/molUSER    (2) Final Total Internal Energy     =  -3.05 kcal/molUSER    (3) Torsional Free Energy           =  +4.47 kcal/molUSER    (4) Unbound System's Energy         =  -3.05 kcal/molUSERUSERREMARK SMILES COc1ccc(O)c(C(=O)c2ccc(CN[C@@H]3CCCNC[C@H]3NC(=O)c3ccncc3)cc2)c1FREMARK SMILES IDX 16 1 15 3 14 4 11 5 12 6 34 7 13 8 33 9 9 10 10 11 8 12 3 13REMARK SMILES IDX 4 14 35 15 5 16 6 17 36 18 2 19 1 20 7 21 17 23 18 24 23 26REMARK SMILES IDX 22 27 21 28 20 30 19 31 24 33 25 34 26 36 27 37 28 38 32 39REMARK SMILES IDX 29 40 31 41 30 42REMARK H PARENT 16 2 7 22 21 29 24 35REMARK Flexibility Score:   99.900USER                              x       y       z     vdW  Elec       q    TypeUSER                           _______ _______ _______ _____ _____    ______ ____ROOTATOM      1  N   UNL     1      39.586  45.431  25.623 -0.03 -0.01    -0.308 NA ATOM      2  H   UNL     1      39.092  44.670  26.095 +0.05 -0.00    +0.123 HD ENDROOTBRANCH   1   3ATOM      3  C   UNL     1      40.133  44.923  24.363 -0.13 +0.00    +0.117 C  BRANCH   3   4ATOM      4  C   UNL     1      39.082  44.397  23.415 -0.22 -0.00    -0.034 A  ATOM      5  C   UNL     1      37.121  43.399  21.663 -0.39 +0.00    +0.023 A  ATOM      6  C   UNL     1      37.703  42.556  22.615 -0.40 +0.00    +0.012 A  ATOM      7  C   UNL     1      37.538  44.732  21.571 -0.30 +0.00    +0.012 A  ATOM      8  C   UNL     1      38.671  43.057  23.490 -0.28 +0.00    +0.006 A  ATOM      9  C   UNL     1      38.508  45.229  22.445 -0.34 +0.00    +0.006 A  BRANCH   5  10ATOM     10  C   UNL     1      36.121  42.906  20.687 -0.37 +0.00    +0.199 C  ATOM     11  O   UNL     1      35.635  41.784  20.844 -0.35 -0.00    -0.288 OA BRANCH  10  12ATOM     12  C   UNL     1      35.622  43.717  19.555 -0.33 -0.01    +0.104 A  ATOM     13  C   UNL     1      35.997  45.124  17.599 -0.23 -0.06    +0.155 A  ATOM     14  C   UNL     1      34.618  45.253  17.431 -0.32 -0.03    +0.053 A  ATOM     15  C   UNL     1      36.488  44.347  18.661 -0.23 -0.04    +0.179 A  ATOM     16  C   UNL     1      33.741  44.597  18.300 -0.33 -0.02    +0.051 A  ATOM     17  C   UNL     1      34.242  43.822  19.343 -0.31 -0.02    +0.130 A  ATOM     18  F   UNL     1      37.816  44.198  18.789 -0.08 +0.03    -0.202 F  BRANCH  13  19ATOM     19  O   UNL     1      36.950  45.699  16.801 -0.06 +0.22    -0.494 OA ATOM     20  C   UNL     1      36.559  46.828  16.031 -0.24 -0.22    +0.278 C  ENDBRANCH  13  19BRANCH  17  21ATOM     21  O   UNL     1      33.317  43.184  20.126 -0.68 -0.08    -0.507 OA ATOM     22  H   UNL     1      33.609  42.249  20.233 +0.20 +0.10    +0.293 HD ENDBRANCH  17  21ENDBRANCH  10  12ENDBRANCH   5  10ENDBRANCH   3   4ENDBRANCH   1   3BRANCH   1  23ATOM     23  C   UNL     1      38.638  46.566  25.451 -0.26 +0.00    +0.077 C  BRANCH  23  24ATOM     24  C   UNL     1      39.475  47.850  25.389 -0.31 +0.00    +0.022 CG0ATOM     25  G   UNL     1      39.483  48.687  26.667 +0.00 +0.00    +0.000 G0 ENDBRANCH  23  24BRANCH  23  26ATOM     26  C   UNL     1      37.590  46.562  26.607 -0.31 -0.01    +0.113 C  BRANCH  26  27ATOM     27  C   UNL     1      36.559  47.708  26.454 -0.31 -0.02    +0.107 C  BRANCH  27  28ATOM     28  N   UNL     1      37.041  49.047  26.130 -0.21 -0.00    -0.315 NA ATOM     29  H   UNL     1      36.282  49.717  26.275 +0.06 +0.00    +0.122 HD BRANCH  28  30ATOM     30  C   UNL     1      38.220  49.529  26.833 -0.17 +0.01    +0.081 C  BRANCH  30  31ATOM     31  C   UNL     1      39.481  48.686  26.666 -0.28 +0.00    +0.017 CG0ATOM     32  G   UNL     1      39.475  47.854  25.385 +0.00 +0.00    +0.000 G0 ENDBRANCH  30  31ENDBRANCH  28  30ENDBRANCH  27  28ENDBRANCH  26  27BRANCH  26  33ATOM     33  N   UNL     1      36.885  45.265  26.630 -0.15 +0.05    -0.346 N  ATOM     34  C   UNL     1      37.385  44.187  27.328 -0.25 -0.04    +0.251 C  ATOM     35  H   UNL     1      35.979  45.218  26.188 -0.41 -0.05    +0.164 HD ATOM     36  O   UNL     1      38.473  44.195  27.889 -0.18 +0.03    -0.269 OA BRANCH  34  37ATOM     37  C   UNL     1      36.546  42.960  27.355 -0.39 -0.01    +0.042 A  ATOM     38  C   UNL     1      35.196  43.081  27.023 -0.51 -0.01    +0.034 A  ATOM     39  C   UNL     1      37.071  41.706  27.667 -0.45 -0.01    +0.034 A  ATOM     40  C   UNL     1      34.416  41.941  27.046 -0.33 -0.03    +0.112 A  ATOM     41  C   UNL     1      36.206  40.625  27.659 -0.41 -0.04    +0.112 A  ATOM     42  N   UNL     1      34.892  40.718  27.366 -0.39 +0.14    -0.265 NA ENDBRANCH  34  37ENDBRANCH  26  33ENDBRANCH  23  26ENDBRANCH   1  23TORSDOF 9TERENDMDL