MODEL        8USER    Run = 8USERUSER    Estimated Free Energy of Binding    =  -7.58 kcal/mol  [=(1)+(2)+(3)-(4)]USERUSER    (1) Final Intermolecular Energy     = -12.06 kcal/molUSER        vdW + Hbond + desolv Energy     = -12.42 kcal/molUSER        Electrostatic Energy            =  -0.19 kcal/molUSER        Moving Ligand-Fixed Receptor    = -12.62 kcal/molUSER        Moving Ligand-Moving Receptor   =  +0.56 kcal/molUSER    (2) Final Total Internal Energy     =  -2.88 kcal/molUSER    (3) Torsional Free Energy           =  +4.47 kcal/molUSER    (4) Unbound System's Energy         =  -2.88 kcal/molUSERUSERREMARK SMILES COc1ccc(O)c(C(=O)c2ccc(NC[C@@H]3CCCNC[C@@H]3NC(=O)c3ccncc3)cc2)c1FREMARK SMILES IDX 16 1 15 2 14 4 11 5 12 6 34 7 13 8 33 9 9 10 10 11 8 12 3 13REMARK SMILES IDX 4 14 35 15 5 16 6 17 36 18 2 19 1 20 7 21 17 23 18 24 23 26REMARK SMILES IDX 22 27 21 28 20 30 19 31 24 33 25 34 26 36 27 37 28 38 32 39REMARK SMILES IDX 29 40 31 41 30 42REMARK H PARENT 15 3 7 22 21 29 24 35REMARK Flexibility Score:   99.900USER                              x       y       z     vdW  Elec       q    TypeUSER                           _______ _______ _______ _____ _____    ______ ____ROOTATOM      1  C   UNL     1      37.572  44.206  23.622 -0.31 +0.01    +0.118 C  ENDROOTBRANCH   1   2ATOM      2  N   UNL     1      38.859  44.875  23.413 -0.07 -0.03    -0.385 N  ATOM      3  H   UNL     1      39.035  45.623  24.076 +0.08 +0.01    +0.160 HD BRANCH   2   4ATOM      4  C   UNL     1      39.382  45.116  22.146 -0.29 +0.00    +0.034 A  ATOM      5  C   UNL     1      40.283  45.653  19.517 -0.41 +0.00    +0.023 A  ATOM      6  C   UNL     1      41.040  46.053  20.620 -0.30 +0.00    +0.014 A  ATOM      7  C   UNL     1      39.049  45.036  19.722 -0.38 -0.00    +0.014 A  ATOM      8  C   UNL     1      40.587  45.792  21.919 -0.26 +0.00    +0.026 A  ATOM      9  C   UNL     1      38.608  44.779  21.027 -0.34 +0.00    +0.026 A  BRANCH   5  10ATOM     10  C   UNL     1      40.784  45.980  18.160 -0.41 -0.01    +0.199 C  ATOM     11  O   UNL     1      41.917  45.618  17.836 -0.22 -0.01    -0.288 OA BRANCH  10  12ATOM     12  C   UNL     1      40.012  46.773  17.179 -0.41 -0.02    +0.104 A  ATOM     13  C   UNL     1      38.046  47.122  15.777 -0.31 -0.08    +0.155 A  ATOM     14  C   UNL     1      38.586  48.328  15.326 -0.48 -0.03    +0.053 A  ATOM     15  C   UNL     1      38.772  46.349  16.698 -0.29 -0.05    +0.179 A  ATOM     16  C   UNL     1      39.841  48.745  15.775 -0.52 -0.02    +0.051 A  ATOM     17  C   UNL     1      40.553  47.965  16.683 -0.43 -0.02    +0.130 A  ATOM     18  F   UNL     1      38.262  45.171  17.091 -0.08 +0.05    -0.202 F  BRANCH  13  19ATOM     19  O   UNL     1      36.838  46.602  15.396 -0.07 +0.32    -0.494 OA ATOM     20  C   UNL     1      36.337  46.983  14.121 -0.32 -0.18    +0.278 C  ENDBRANCH  13  19BRANCH  17  21ATOM     21  O   UNL     1      41.788  48.429  17.046 -0.59 -0.03    -0.507 OA ATOM     22  H   UNL     1      42.380  47.652  17.167 -0.35 -0.06    +0.293 HD ENDBRANCH  17  21ENDBRANCH  10  12ENDBRANCH   5  10ENDBRANCH   2   4ENDBRANCH   1   2BRANCH   1  23ATOM     23  C   UNL     1      37.559  43.368  24.925 -0.35 +0.00    +0.032 C  BRANCH  23  24ATOM     24  C   UNL     1      36.206  42.643  25.074 -0.34 +0.00    +0.009 CG0ATOM     25  G   UNL     1      36.039  41.626  26.204 +0.00 +0.00    +0.000 G0 ENDBRANCH  23  24BRANCH  23  26ATOM     26  C   UNL     1      37.980  44.240  26.130 -0.23 -0.00    +0.101 C  BRANCH  26  27ATOM     27  C   UNL     1      37.667  43.543  27.475 -0.32 -0.02    +0.106 C  BRANCH  27  28ATOM     28  N   UNL     1      36.242  43.484  27.828 -0.21 +0.09    -0.315 NA ATOM     29  H   UNL     1      36.169  43.669  28.832 -0.46 -0.06    +0.122 HD BRANCH  28  30ATOM     30  C   UNL     1      35.643  42.174  27.568 -0.55 -0.03    +0.081 C  BRANCH  30  31ATOM     31  C   UNL     1      36.049  41.625  26.206 -0.51 -0.00    +0.016 CG0ATOM     32  G   UNL     1      36.206  42.642  25.075 +0.00 +0.00    +0.000 G0 ENDBRANCH  30  31ENDBRANCH  28  30ENDBRANCH  27  28ENDBRANCH  26  27BRANCH  26  33ATOM     33  N   UNL     1      37.375  45.569  26.116 -0.14 +0.02    -0.348 N  ATOM     34  C   UNL     1      38.102  46.729  25.995 -0.22 +0.00    +0.251 C  ATOM     35  H   UNL     1      36.383  45.586  26.323 -0.30 -0.04    +0.164 HD ATOM     36  O   UNL     1      39.323  46.743  25.894 -0.11 -0.01    -0.269 OA BRANCH  34  37ATOM     37  C   UNL     1      37.339  48.005  26.014 -0.37 -0.00    +0.042 A  ATOM     38  C   UNL     1      36.563  48.289  27.139 -0.35 -0.00    +0.034 A  ATOM     39  C   UNL     1      37.397  48.929  24.970 -0.41 +0.00    +0.034 A  ATOM     40  C   UNL     1      35.858  49.477  27.162 -0.27 -0.00    +0.112 A  ATOM     41  C   UNL     1      36.654  50.090  25.091 -0.28 -0.00    +0.112 A  ATOM     42  N   UNL     1      35.883  50.381  26.159 -0.24 -0.01    -0.265 NA ENDBRANCH  34  37ENDBRANCH  26  33ENDBRANCH  23  26ENDBRANCH   1  23TORSDOF 9TERENDMDL