MODEL        1USER    Run = 1USERUSER    Estimated Free Energy of Binding    = -13.66 kcal/mol  [=(1)+(2)+(3)-(4)]USERUSER    (1) Final Intermolecular Energy     = -16.35 kcal/molUSER        vdW + Hbond + desolv Energy     = -16.27 kcal/molUSER        Electrostatic Energy            =  -0.08 kcal/molUSER        Moving Ligand-Fixed Receptor    = -16.35 kcal/molUSER        Moving Ligand-Moving Receptor   =  +0.00 kcal/molUSER    (2) Final Total Internal Energy     =  -2.59 kcal/molUSER    (3) Torsional Free Energy           =  +2.68 kcal/molUSER    (4) Unbound System's Energy         =  -2.59 kcal/molUSERUSERREMARK SMILES C[C@H](O)[C@H](CCc1cc(-c2c[nH]c3ccccc23)ccc1C(=O)N1CCOCC1)c1ccc(-c2nnn[nH]2)cc1REMARK SMILES IDX 5 1 4 2 2 3 1 4 3 5 30 7 31 8 40 9 32 10 39 11 33 12 34 13REMARK SMILES IDX 35 14 38 15 36 16 37 17 6 19 7 20 8 21 21 22 9 23 20 24REMARK SMILES IDX 19 25 22 26 24 27 25 28 29 29 26 30 28 31 27 32 23 33 10 34REMARK SMILES IDX 11 35 18 36 12 37 17 38 13 39 16 40 14 41 15 42REMARK H PARENT 3 6 38 18 12 43USER                              x       y       z     vdW  Elec       q    TypeUSER                           _______ _______ _______ _____ _____    ______ ____ROOTATOM      1  C   UNL     1      35.505  43.993  19.916 -0.46 -0.00    +0.016 C  ENDROOTBRANCH   1   2ATOM      2  C   UNL     1      34.728  43.444  18.687 -0.39 -0.01    +0.048 C  BRANCH   2   3ATOM      3  C   UNL     1      33.183  43.473  18.862 -0.36 -0.02    +0.118 C  ATOM      4  C   UNL     1      32.476  44.466  17.946 -0.33 -0.01    +0.039 C  BRANCH   3   5ATOM      5  O   UNL     1      32.876  43.839  20.212 -0.73 -0.01    -0.393 OA ATOM      6  H   UNL     1      33.128  44.768  20.338 -0.31 -0.06    +0.210 HD ENDBRANCH   3   5ENDBRANCH   2   3BRANCH   2   7ATOM      7  C   UNL     1      35.179  44.220  17.443 -0.28 +0.02    -0.042 A  ATOM      8  C   UNL     1      35.479  43.573  16.234 -0.40 -0.00    +0.005 A  ATOM      9  C   UNL     1      35.250  45.620  17.486 -0.36 -0.00    +0.005 A  ATOM     10  C   UNL     1      35.862  44.308  15.106 -0.28 -0.01    +0.012 A  ATOM     11  C   UNL     1      35.616  46.354  16.353 -0.33 -0.01    +0.012 A  ATOM     12  C   UNL     1      35.941  45.708  15.154 -0.35 -0.01    +0.021 A  BRANCH  12  13ATOM     13  C   UNL     1      36.346  46.501  13.997 -0.33 -0.10    +0.179 A  ATOM     14  N   UNL     1      35.604  47.317  13.269 -0.47 +0.07    -0.109 NA ATOM     15  N   UNL     1      37.613  46.552  13.483 -0.29 +0.08    -0.239 N  ATOM     16  N   UNL     1      36.429  47.842  12.304 -1.05 +0.01    -0.024 NA ATOM     17  N   UNL     1      37.662  47.377  12.429 -1.14 +0.01    -0.048 NA ATOM     18  H   UNL     1      38.452  46.080  13.794 +0.14 -0.05    +0.194 HD ENDBRANCH  12  13ENDBRANCH   2   7ENDBRANCH   1   2BRANCH   1  19ATOM     19  C   UNL     1      36.707  43.131  20.354 -0.44 -0.00    +0.037 C  BRANCH  19  20ATOM     20  C   UNL     1      37.952  43.892  20.763 -0.32 +0.00    -0.035 A  ATOM     21  C   UNL     1      38.592  44.755  19.856 -0.37 -0.00    +0.013 A  ATOM     22  C   UNL     1      38.517  43.759  22.047 -0.29 +0.00    +0.043 A  ATOM     23  C   UNL     1      39.806  45.382  20.177 -0.37 -0.00    -0.016 A  ATOM     24  C   UNL     1      39.721  44.391  22.380 -0.25 +0.00    +0.015 A  ATOM     25  C   UNL     1      40.368  45.194  21.442 -0.30 +0.00    +0.009 A  BRANCH  22  26ATOM     26  C   UNL     1      37.881  42.927  23.090 -0.25 +0.02    +0.254 C  ATOM     27  N   UNL     1      37.492  43.553  24.264 -0.14 -0.02    -0.334 N  ATOM     28  C   UNL     1      37.732  44.964  24.594 -0.27 +0.01    +0.148 C  ATOM     29  C   UNL     1      36.796  42.776  25.291 -0.34 -0.00    +0.148 C  ATOM     30  C   UNL     1      37.726  45.183  26.111 -0.24 -0.01    +0.181 C  ATOM     31  C   UNL     1      35.852  43.670  26.100 -0.29 -0.01    +0.181 C  ATOM     32  O   UNL     1      36.505  44.775  26.743 -0.19 +0.07    -0.378 OA ATOM     33  O   UNL     1      37.724  41.732  22.863 -0.32 -0.03    -0.269 OA ENDBRANCH  22  26BRANCH  23  34ATOM     34  C   UNL     1      40.505  46.159  19.171 -0.42 -0.00    +0.007 A  ATOM     35  C   UNL     1      41.836  46.508  19.273 -0.42 +0.01    +0.092 A  ATOM     36  C   UNL     1      39.999  46.748  17.970 -0.45 -0.00    +0.007 A  ATOM     37  N   UNL     1      42.157  47.273  18.183 -0.25 +0.02    -0.361 N  ATOM     38  C   UNL     1      38.735  46.781  17.343 -0.34 -0.00    +0.011 A  ATOM     39  C   UNL     1      41.055  47.442  17.375 -0.48 -0.01    +0.046 A  ATOM     40  C   UNL     1      38.576  47.495  16.150 -0.44 -0.00    +0.001 A  ATOM     41  C   UNL     1      40.912  48.160  16.184 -0.52 -0.00    +0.027 A  ATOM     42  C   UNL     1      39.650  48.174  15.582 -0.54 -0.00    +0.002 A  ATOM     43  H   UNL     1      43.064  47.678  17.999 -0.32 -0.01    +0.166 HD ENDBRANCH  23  34ENDBRANCH  19  20ENDBRANCH   1  19TORSDOF 9TERENDMDL