MODEL        2USER    Run = 2USERUSER    Estimated Free Energy of Binding    = -12.19 kcal/mol  [=(1)+(2)+(3)-(4)]USERUSER    (1) Final Intermolecular Energy     = -14.88 kcal/molUSER        vdW + Hbond + desolv Energy     = -14.71 kcal/molUSER        Electrostatic Energy            =  -0.17 kcal/molUSER        Moving Ligand-Fixed Receptor    = -14.88 kcal/molUSER        Moving Ligand-Moving Receptor   =  +0.00 kcal/molUSER    (2) Final Total Internal Energy     =  -2.76 kcal/molUSER    (3) Torsional Free Energy           =  +2.68 kcal/molUSER    (4) Unbound System's Energy         =  -2.76 kcal/molUSERUSERREMARK SMILES Cc1[nH]c2ccccc2c1C(=O)N[C@H](C[C@H](c1ccc(-c2nnn[nH]2)cc1)[C@H](C)O)N1CCOCC1REMARK SMILES IDX 15 1 14 2 13 3 11 4 12 5 10 7 2 8 3 9 4 10 9 11 5 12 8 13REMARK SMILES IDX 6 14 7 15 1 16 31 18 32 19 36 20 33 21 35 22 34 23 16 24REMARK SMILES IDX 17 25 18 26 27 27 19 28 26 29 20 30 21 31 22 32 25 33 23 34REMARK SMILES IDX 24 35 28 37 29 38 30 39REMARK H PARENT 13 6 3 17 25 36 30 40USER                              x       y       z     vdW  Elec       q    TypeUSER                           _______ _______ _______ _____ _____    ______ ____ROOTATOM      1  C   UNL     1      36.603  44.418  19.774 -0.37 -0.00    +0.052 C  ENDROOTBRANCH   1   2ATOM      2  C   UNL     1      38.060  44.413  20.288 -0.32 -0.00    +0.153 C  BRANCH   2   3ATOM      3  N   UNL     1      38.833  45.468  19.687 -0.18 +0.01    -0.336 N  ATOM      4  C   UNL     1      39.912  45.238  18.871 -0.32 -0.01    +0.254 C  ATOM      5  O   UNL     1      40.195  44.107  18.479 -0.28 +0.00    -0.269 OA ATOM      6  H   UNL     1      38.635  46.392  20.017 +0.09 +0.00    +0.165 HD BRANCH   4   7ATOM      7  C   UNL     1      40.673  46.420  18.450 -0.44 -0.00    +0.068 A  ATOM      8  C   UNL     1      41.781  47.018  19.054 -0.48 +0.00    +0.026 A  ATOM      9  N   UNL     1      42.137  48.104  18.288 -0.29 +0.00    -0.358 N  ATOM     10  C   UNL     1      41.333  48.215  17.183 -0.45 -0.00    +0.046 A  ATOM     11  C   UNL     1      40.409  47.176  17.249 -0.50 -0.00    +0.012 A  ATOM     12  C   UNL     1      41.365  49.145  16.136 -0.45 -0.00    +0.027 A  ATOM     13  C   UNL     1      39.464  47.064  16.203 -0.47 -0.00    +0.011 A  ATOM     14  C   UNL     1      40.422  49.005  15.114 -0.60 -0.00    +0.002 A  ATOM     15  C   UNL     1      39.482  47.979  15.143 -0.54 -0.00    +0.001 A  ATOM     16  C   UNL     1      42.589  46.674  20.257 -0.43 +0.02    +0.065 C  ATOM     17  H   UNL     1      42.913  48.722  18.482 -0.11 +0.01    +0.166 HD ENDBRANCH   4   7ENDBRANCH   2   3BRANCH   2  18ATOM     18  N   UNL     1      38.291  44.665  21.710 -0.20 -0.01    -0.279 NA ATOM     19  C   UNL     1      39.652  44.318  22.152 -0.25 +0.00    +0.115 C  ATOM     20  C   UNL     1      37.314  44.175  22.697 -0.34 +0.01    +0.115 C  ATOM     21  C   UNL     1      39.796  42.836  22.520 -0.17 +0.01    +0.175 C  ATOM     22  C   UNL     1      37.528  42.725  23.171 -0.34 +0.01    +0.175 C  ATOM     23  O   UNL     1      38.883  42.479  23.563 -0.12 -0.04    -0.379 OA ENDBRANCH   2  18ENDBRANCH   1   2BRANCH   1  24ATOM     24  C   UNL     1      36.335  43.522  18.535 -0.30 -0.01    +0.051 C  BRANCH  24  25ATOM     25  C   UNL     1      36.458  44.371  17.263 -0.30 +0.01    -0.042 A  ATOM     26  C   UNL     1      36.807  43.764  16.051 -0.37 -0.00    +0.005 A  ATOM     27  C   UNL     1      36.231  45.754  17.276 -0.35 -0.00    +0.005 A  ATOM     28  C   UNL     1      36.913  44.514  14.875 -0.34 -0.00    +0.012 A  ATOM     29  C   UNL     1      36.341  46.503  16.102 -0.37 -0.01    +0.012 A  ATOM     30  C   UNL     1      36.674  45.894  14.884 -0.37 -0.01    +0.021 A  BRANCH  30  31ATOM     31  C   UNL     1      36.754  46.710  13.677 -0.36 -0.09    +0.179 A  ATOM     32  N   UNL     1      37.173  46.337  12.480 -0.52 +0.04    -0.109 NA ATOM     33  N   UNL     1      36.436  48.038  13.590 -0.36 +0.14    -0.239 N  ATOM     34  N   UNL     1      37.092  47.444  11.671 -1.16 +0.01    -0.024 NA ATOM     35  N   UNL     1      36.640  48.490  12.347 -0.98 +0.01    -0.048 NA ATOM     36  H   UNL     1      36.114  48.675  14.306 +0.17 -0.19    +0.194 HD ENDBRANCH  30  31ENDBRANCH  24  25BRANCH  24  37ATOM     37  C   UNL     1      34.969  42.777  18.553 -0.36 -0.02    +0.119 C  ATOM     38  C   UNL     1      34.182  42.881  19.854 -0.40 +0.00    +0.039 C  BRANCH  37  39ATOM     39  O   UNL     1      35.186  41.379  18.311 -0.35 +0.09    -0.393 OA ATOM     40  H   UNL     1      35.049  41.224  17.359 -0.40 -0.13    +0.210 HD ENDBRANCH  37  39ENDBRANCH  24  37ENDBRANCH   1  24TORSDOF 9TERENDMDL