MODEL        8USER    Run = 8USERUSER    Estimated Free Energy of Binding    = -13.74 kcal/mol  [=(1)+(2)+(3)-(4)]USERUSER    (1) Final Intermolecular Energy     = -16.73 kcal/molUSER        vdW + Hbond + desolv Energy     = -16.56 kcal/molUSER        Electrostatic Energy            =  -0.16 kcal/molUSER        Moving Ligand-Fixed Receptor    = -16.73 kcal/molUSER        Moving Ligand-Moving Receptor   =  +0.00 kcal/molUSER    (2) Final Total Internal Energy     =  -4.47 kcal/molUSER    (3) Torsional Free Energy           =  +2.98 kcal/molUSER    (4) Unbound System's Energy         =  -4.47 kcal/molUSERUSERREMARK SMILES C[C@H](O)[C@H](CCCc1cc(-c2c[nH]c3ccncc23)ccc1C(=O)N1CCOCC1)c1ccc(-c2nnn[nH]2)cc1REMARK SMILES IDX 5 1 4 2 2 3 1 4 3 5 31 7 32 8 41 9 33 10 40 11 34 12 35 13REMARK SMILES IDX 36 14 39 15 37 16 38 17 6 19 7 20 8 21 9 22 22 23 10 24REMARK SMILES IDX 21 25 20 26 23 27 25 28 26 29 30 30 27 31 29 32 28 33 24 34REMARK SMILES IDX 11 35 12 36 19 37 13 38 18 39 14 40 17 41 15 42 16 43REMARK H PARENT 3 6 39 18 13 44USER                              x       y       z     vdW  Elec       q    TypeUSER                           _______ _______ _______ _____ _____    ______ ____ROOTATOM      1  C   UNL     1      34.943  42.982  19.100 -0.45 -0.00    +0.011 C  ENDROOTBRANCH   1   2ATOM      2  C   UNL     1      34.281  42.708  17.727 -0.41 -0.01    +0.048 C  BRANCH   2   3ATOM      3  C   UNL     1      32.727  42.692  17.784 -0.31 -0.03    +0.118 C  ATOM      4  C   UNL     1      32.158  42.953  19.177 -0.40 -0.00    +0.039 C  BRANCH   3   5ATOM      5  O   UNL     1      32.203  41.465  17.276 -0.14 +0.16    -0.393 OA ATOM      6  H   UNL     1      32.383  41.443  16.319 -0.41 -0.19    +0.210 HD ENDBRANCH   3   5ENDBRANCH   2   3BRANCH   2   7ATOM      7  C   UNL     1      34.848  43.677  16.690 -0.33 +0.02    -0.042 A  ATOM      8  C   UNL     1      36.000  43.335  15.971 -0.44 -0.00    +0.005 A  ATOM      9  C   UNL     1      34.248  44.917  16.437 -0.31 -0.00    +0.005 A  ATOM     10  C   UNL     1      36.532  44.213  15.020 -0.36 -0.00    +0.012 A  ATOM     11  C   UNL     1      34.782  45.795  15.487 -0.31 -0.01    +0.012 A  ATOM     12  C   UNL     1      35.935  45.455  14.766 -0.36 -0.01    +0.021 A  BRANCH  12  13ATOM     13  C   UNL     1      36.526  46.342  13.767 -0.34 -0.09    +0.179 A  ATOM     14  N   UNL     1      36.655  47.657  13.834 -0.47 +0.07    -0.109 NA ATOM     15  N   UNL     1      37.047  45.957  12.561 -0.36 +0.08    -0.239 N  ATOM     16  N   UNL     1      37.262  48.055  12.669 -1.14 +0.00    -0.024 NA ATOM     17  N   UNL     1      37.504  47.018  11.883 -1.01 +0.01    -0.048 NA ATOM     18  H   UNL     1      37.117  45.038  12.150 +0.15 -0.06    +0.194 HD ENDBRANCH  12  13ENDBRANCH   2   7ENDBRANCH   1   2BRANCH   1  19ATOM     19  C   UNL     1      35.631  44.347  19.183 -0.44 -0.00    +0.005 C  BRANCH  19  20ATOM     20  C   UNL     1      36.633  44.393  20.340 -0.37 -0.00    +0.036 C  BRANCH  20  21ATOM     21  C   UNL     1      38.009  44.817  19.884 -0.30 +0.00    -0.035 A  ATOM     22  C   UNL     1      38.144  45.440  18.630 -0.34 -0.00    +0.013 A  ATOM     23  C   UNL     1      39.166  44.629  20.659 -0.32 +0.00    +0.043 A  ATOM     24  C   UNL     1      39.400  45.839  18.146 -0.42 +0.00    -0.016 A  ATOM     25  C   UNL     1      40.428  44.992  20.169 -0.38 +0.00    +0.015 A  ATOM     26  C   UNL     1      40.542  45.600  18.918 -0.45 -0.00    +0.009 A  BRANCH  23  27ATOM     27  C   UNL     1      39.099  44.011  22.001 -0.19 +0.01    +0.254 C  ATOM     28  N   UNL     1      38.768  44.823  23.078 -0.11 -0.02    -0.334 N  ATOM     29  C   UNL     1      38.456  46.256  22.998 -0.18 +0.02    +0.148 C  ATOM     30  C   UNL     1      38.558  44.210  24.390 -0.20 +0.01    +0.148 C  ATOM     31  C   UNL     1      38.403  46.897  24.388 -0.27 +0.03    +0.181 C  ATOM     32  C   UNL     1      37.353  44.847  25.090 -0.27 +0.01    +0.181 C  ATOM     33  O   UNL     1      37.454  46.270  25.261 -0.71 -0.05    -0.378 OA ATOM     34  O   UNL     1      39.327  42.809  22.093 -0.13 -0.02    -0.269 OA ENDBRANCH  23  27BRANCH  24  35ATOM     35  C   UNL     1      39.504  46.500  16.857 -0.45 -0.00    +0.009 A  ATOM     36  C   UNL     1      38.822  46.075  15.735 -0.33 -0.02    +0.092 A  ATOM     37  C   UNL     1      40.259  47.657  16.482 -0.51 -0.01    +0.026 A  ATOM     38  N   UNL     1      39.126  46.926  14.704 -0.18 +0.09    -0.360 N  ATOM     39  C   UNL     1      41.143  48.515  17.151 -0.28 -0.01    +0.121 A  ATOM     40  C   UNL     1      40.001  47.896  15.131 -0.50 -0.01    +0.049 A  ATOM     41  N   UNL     1      41.721  49.558  16.504 -0.89 -0.04    -0.264 NA ATOM     42  C   UNL     1      40.582  48.959  14.442 -0.48 -0.01    +0.047 A  ATOM     43  C   UNL     1      41.434  49.752  15.198 -0.57 -0.02    +0.113 A  ATOM     44  H   UNL     1      38.759  46.855  13.764 +0.12 -0.04    +0.166 HD ENDBRANCH  24  35ENDBRANCH  20  21ENDBRANCH  19  20ENDBRANCH   1  19TORSDOF 10TERENDMDL