MODEL        5USER    Run = 5USERUSER    Estimated Free Energy of Binding    = -10.27 kcal/mol  [=(1)+(2)+(3)-(4)]USERUSER    (1) Final Intermolecular Energy     = -12.96 kcal/molUSER        vdW + Hbond + desolv Energy     = -12.81 kcal/molUSER        Electrostatic Energy            =  -0.15 kcal/molUSER        Moving Ligand-Fixed Receptor    = -12.96 kcal/molUSER        Moving Ligand-Moving Receptor   =  +0.00 kcal/molUSER    (2) Final Total Internal Energy     =  -2.39 kcal/molUSER    (3) Torsional Free Energy           =  +2.68 kcal/molUSER    (4) Unbound System's Energy         =  -2.39 kcal/molUSERUSERREMARK SMILES CS[C@@H]1C(C(=O)N2CCOCC2)=CC=C1c1ccncc1NCCc1ccc(O)cc1C(N)=OREMARK SMILES IDX 22 1 21 3 16 4 17 5 18 6 20 7 19 8 15 9 3 10 4 11 13 12REMARK SMILES IDX 14 13 2 14 1 15 5 16 7 17 8 18 12 19 9 20 11 21 10 22 6 23REMARK SMILES IDX 23 24 24 25 25 26 26 27 31 28 27 29 30 30 28 31 32 32 33 33REMARK SMILES IDX 34 34 29 37REMARK H PARENT 22 2 33 35 33 36 29 38USER                              x       y       z     vdW  Elec       q    TypeUSER                           _______ _______ _______ _____ _____    ______ ____ROOTATOM      1  N   UNL     1      37.891  47.560  15.775 -0.16 +0.23    -0.383 N  ATOM      2  H   UNL     1      37.356  48.088  16.459 +0.10 -0.15    +0.160 HD ENDROOTBRANCH   1   3ATOM      3  C   UNL     1      37.189  47.439  14.559 -0.43 -0.04    +0.060 A  ATOM      4  C   UNL     1      36.398  46.301  14.277 -0.43 -0.00    +0.005 A  ATOM      5  C   UNL     1      35.714  46.223  13.055 -0.50 -0.02    +0.030 A  ATOM      6  C   UNL     1      35.853  47.247  12.136 -0.46 -0.07    +0.112 A  ATOM      7  C   UNL     1      37.288  48.382  13.526 -0.40 -0.06    +0.137 A  ATOM      8  N   UNL     1      36.631  48.324  12.340 -0.86 +0.08    -0.263 NA BRANCH   4   9ATOM      9  C   UNL     1      36.240  45.182  15.215 -0.41 +0.01    -0.021 C  ATOM     10  C   UNL     1      35.207  45.132  16.323 -0.30 -0.07    +0.112 C  ATOM     11  C   UNL     1      35.375  43.724  16.804 -0.39 -0.01    +0.035 C  ATOM     12  C   UNL     1      36.346  43.096  16.124 -0.47 -0.00    +0.011 C  ATOM     13  C   UNL     1      36.876  43.997  15.132 -0.29 -0.00    +0.006 C  BRANCH  10  14ATOM     14  S   UNL     1      35.486  46.415  17.577 -0.37 +0.12    -0.152 SA ATOM     15  C   UNL     1      33.863  46.525  18.371 -0.53 -0.07    +0.086 C  ENDBRANCH  10  14BRANCH  11  16ATOM     16  C   UNL     1      34.538  43.087  17.821 -0.24 -0.07    +0.251 C  ATOM     17  N   UNL     1      33.249  42.760  17.457 -0.12 +0.11    -0.334 N  ATOM     18  C   UNL     1      32.641  42.997  16.145 -0.24 -0.08    +0.148 C  ATOM     19  C   UNL     1      32.392  42.086  18.432 -0.32 -0.02    +0.148 C  ATOM     20  C   UNL     1      31.118  43.100  16.257 -0.26 -0.08    +0.181 C  ATOM     21  C   UNL     1      31.336  41.219  17.738 -0.27 -0.04    +0.181 C  ATOM     22  O   UNL     1      30.498  41.943  16.829 -0.12 +0.12    -0.378 OA ATOM     23  O   UNL     1      35.016  42.834  18.923 -0.23 +0.04    -0.269 OA ENDBRANCH  11  16ENDBRANCH   4   9ENDBRANCH   1   3BRANCH   1  24ATOM     24  C   UNL     1      39.294  47.996  15.733 -0.49 -0.05    +0.118 C  BRANCH  24  25ATOM     25  C   UNL     1      40.249  46.823  15.999 -0.50 -0.01    +0.057 C  BRANCH  25  26ATOM     26  C   UNL     1      40.107  46.244  17.385 -0.45 +0.00    -0.033 A  ATOM     27  C   UNL     1      39.189  45.209  17.617 -0.36 -0.00    +0.008 A  ATOM     28  C   UNL     1      40.883  46.698  18.466 -0.46 -0.00    +0.046 A  ATOM     29  C   UNL     1      39.044  44.653  18.891 -0.36 -0.00    +0.046 A  ATOM     30  C   UNL     1      40.739  46.150  19.743 -0.32 +0.00    +0.060 A  ATOM     31  C   UNL     1      39.818  45.132  19.942 -0.32 +0.00    +0.116 A  BRANCH  28  32ATOM     32  C   UNL     1      41.909  47.738  18.284 -0.37 -0.01    +0.249 C  ATOM     33  N   UNL     1      42.962  47.683  19.146 -0.32 -0.03    -0.366 N  ATOM     34  O   UNL     1      41.784  48.599  17.428 -0.81 -0.02    -0.270 OA ATOM     35  H   UNL     1      43.023  47.007  19.895 +0.05 +0.05    +0.159 HD ATOM     36  H   UNL     1      43.638  48.434  19.114 -0.52 -0.02    +0.159 HD ENDBRANCH  28  32BRANCH  31  37ATOM     37  O   UNL     1      39.705  44.614  21.194 -0.05 -0.02    -0.508 OA ATOM     38  H   UNL     1      39.936  45.289  21.840 +0.16 +0.02    +0.293 HD ENDBRANCH  31  37ENDBRANCH  25  26ENDBRANCH  24  25ENDBRANCH   1  24TORSDOF 9TERENDMDL