REMARK SMILES CS[C@@H]1C(C(=O)N2CCOCC2)=CC=C1c1ccncc1NCCc1ccc(O)cc1C(N)=O
REMARK SMILES IDX 22 1 21 3 16 4 17 5 18 6 20 7 19 8 15 9 3 10 4 11 13 12
REMARK SMILES IDX 14 13 2 14 1 15 5 16 7 17 8 18 12 19 9 20 11 21 10 22 6 23
REMARK SMILES IDX 23 24 24 25 25 26 26 27 31 28 27 29 30 30 28 31 32 32 33 33
REMARK SMILES IDX 34 34 29 37
REMARK H PARENT 22 2 33 35 33 36 29 38
ROOT
ATOM      1  N   UNL     1      -1.595  -0.346   1.640  1.00  0.00    -0.383 N 
ATOM      2  H   UNL     1      -0.894  -0.956   1.230  1.00  0.00     0.160 HD
ENDROOT
BRANCH   1   3
ATOM      3  C   UNL     1      -1.230   1.010   1.515  1.00  0.00     0.060 A 
ATOM      4  C   UNL     1       0.095   1.388   1.197  1.00  0.00     0.005 A 
ATOM      5  C   UNL     1       0.414   2.749   1.080  1.00  0.00     0.030 A 
ATOM      6  C   UNL     1      -0.568   3.695   1.310  1.00  0.00     0.112 A 
ATOM      7  C   UNL     1      -2.118   2.064   1.773  1.00  0.00     0.137 A 
ATOM      8  N   UNL     1      -1.827   3.385   1.661  1.00  0.00    -0.263 NA
BRANCH   4   9
ATOM      9  C   UNL     1       1.173   0.417   0.966  1.00  0.00    -0.021 C 
ATOM     10  C   UNL     1       2.056   0.394  -0.265  1.00  0.00     0.112 C 
ATOM     11  C   UNL     1       3.064  -0.641   0.127  1.00  0.00     0.035 C 
ATOM     12  C   UNL     1       2.790  -1.143   1.341  1.00  0.00     0.011 C 
ATOM     13  C   UNL     1       1.622  -0.481   1.865  1.00  0.00     0.006 C 
BRANCH  10  14
ATOM     14  S   UNL     1       1.117   0.024  -1.774  1.00  0.00    -0.152 SA
ATOM     15  C   UNL     1       0.672  -1.713  -1.525  1.00  0.00     0.086 C 
ENDBRANCH  10  14
BRANCH  11  16
ATOM     16  C   UNL     1       4.240  -1.000  -0.665  1.00  0.00     0.251 C 
ATOM     17  N   UNL     1       5.412  -0.330  -0.385  1.00  0.00    -0.334 N 
ATOM     18  C   UNL     1       5.585   0.711   0.631  1.00  0.00     0.148 C 
ATOM     19  C   UNL     1       6.621  -0.687  -1.128  1.00  0.00     0.148 C 
ATOM     20  C   UNL     1       6.753   1.635   0.277  1.00  0.00     0.181 C 
ATOM     21  C   UNL     1       7.882  -0.406  -0.305  1.00  0.00     0.181 C 
ATOM     22  O   UNL     1       8.004   0.956   0.123  1.00  0.00    -0.378 OA
ATOM     23  O   UNL     1       4.153  -1.894  -1.502  1.00  0.00    -0.269 OA
ENDBRANCH  11  16
ENDBRANCH   4   9
ENDBRANCH   1   3
BRANCH   1  24
ATOM     24  C   UNL     1      -2.954  -0.744   1.248  1.00  0.00     0.118 C 
BRANCH  24  25
ATOM     25  C   UNL     1      -3.156  -0.616  -0.269  1.00  0.00     0.057 C 
BRANCH  25  26
ATOM     26  C   UNL     1      -4.548  -0.989  -0.717  1.00  0.00    -0.033 A 
ATOM     27  C   UNL     1      -4.797  -2.276  -1.217  1.00  0.00     0.008 A 
ATOM     28  C   UNL     1      -5.623  -0.087  -0.637  1.00  0.00     0.046 A 
ATOM     29  C   UNL     1      -6.079  -2.645  -1.633  1.00  0.00     0.046 A 
ATOM     30  C   UNL     1      -6.906  -0.449  -1.057  1.00  0.00     0.060 A 
ATOM     31  C   UNL     1      -7.120  -1.726  -1.552  1.00  0.00     0.116 A 
BRANCH  28  32
ATOM     32  C   UNL     1      -5.448   1.259  -0.067  1.00  0.00     0.249 C 
ATOM     33  N   UNL     1      -5.073   2.227  -0.949  1.00  0.00    -0.366 N 
ATOM     34  O   UNL     1      -5.605   1.460   1.126  1.00  0.00    -0.270 OA
ATOM     35  H   UNL     1      -4.880   2.037  -1.923  1.00  0.00     0.159 HD
ATOM     36  H   UNL     1      -4.852   3.142  -0.581  1.00  0.00     0.159 HD
ENDBRANCH  28  32
BRANCH  31  37
ATOM     37  O   UNL     1      -8.380  -2.052  -1.946  1.00  0.00    -0.508 OA
ATOM     38  H   UNL     1      -8.404  -2.981  -2.196  1.00  0.00     0.293 HD
ENDBRANCH  31  37
ENDBRANCH  25  26
ENDBRANCH  24  25
ENDBRANCH   1  24
TORSDOF 9
