REMARK SMILES C[C@H](O)[C@H](CCc1cc(-c2c[nH]c3ccccc23)ccc1C(=O)N1CCOCC1)c1ccc(-c2nnn[nH]2)cc1
REMARK SMILES IDX 5 1 4 2 2 3 1 4 3 5 30 7 31 8 40 9 32 10 39 11 33 12 34 13
REMARK SMILES IDX 35 14 38 15 36 16 37 17 6 19 7 20 8 21 21 22 9 23 20 24
REMARK SMILES IDX 19 25 22 26 24 27 25 28 29 29 26 30 28 31 27 32 23 33 10 34
REMARK SMILES IDX 11 35 18 36 12 37 17 38 13 39 16 40 14 41 15 42
REMARK H PARENT 3 6 38 18 12 43
ROOT
ATOM      1  C   UNL     1       1.413   1.806  -0.384  1.00  0.00     0.016 C 
ENDROOT
BRANCH   1   2
ATOM      2  C   UNL     1       1.804   0.582  -1.258  1.00  0.00     0.048 C 
BRANCH   2   3
ATOM      3  C   UNL     1       2.522   0.964  -2.583  1.00  0.00     0.118 C 
ATOM      4  C   UNL     1       1.736   1.937  -3.454  1.00  0.00     0.039 C 
BRANCH   3   5
ATOM      5  O   UNL     1       2.737  -0.225  -3.353  1.00  0.00    -0.393 OA
ATOM      6  H   UNL     1       3.147   0.031  -4.195  1.00  0.00     0.210 HD
ENDBRANCH   3   5
ENDBRANCH   2   3
BRANCH   2   7
ATOM      7  C   UNL     1       2.647  -0.374  -0.404  1.00  0.00    -0.042 A 
ATOM      8  C   UNL     1       3.957  -0.060  -0.012  1.00  0.00     0.005 A 
ATOM      9  C   UNL     1       2.087  -1.579   0.046  1.00  0.00     0.005 A 
ATOM     10  C   UNL     1       4.694  -0.939   0.791  1.00  0.00     0.012 A 
ATOM     11  C   UNL     1       2.819  -2.448   0.862  1.00  0.00     0.012 A 
ATOM     12  C   UNL     1       4.135  -2.147   1.232  1.00  0.00     0.021 A 
BRANCH  12  13
ATOM     13  C   UNL     1       4.881  -3.088   2.062  1.00  0.00     0.179 A 
ATOM     14  N   UNL     1       4.403  -4.011   2.878  1.00  0.00    -0.109 NA
ATOM     15  N   UNL     1       6.245  -3.189   2.105  1.00  0.00    -0.239 N 
ATOM     16  N   UNL     1       5.488  -4.653   3.425  1.00  0.00    -0.024 NA
ATOM     17  N   UNL     1       6.621  -4.153   2.955  1.00  0.00    -0.048 NA
ATOM     18  H   UNL     1       6.945  -2.664   1.597  1.00  0.00     0.194 HD
ENDBRANCH  12  13
ENDBRANCH   2   7
ENDBRANCH   1   2
BRANCH   1  19
ATOM     19  C   UNL     1      -0.056   2.255  -0.525  1.00  0.00     0.037 C 
BRANCH  19  20
ATOM     20  C   UNL     1      -1.101   1.199  -0.229  1.00  0.00    -0.035 A 
ATOM     21  C   UNL     1      -0.936   0.312   0.849  1.00  0.00     0.013 A 
ATOM     22  C   UNL     1      -2.259   1.057  -1.019  1.00  0.00     0.043 A 
ATOM     23  C   UNL     1      -1.835  -0.742   1.073  1.00  0.00    -0.016 A 
ATOM     24  C   UNL     1      -3.168   0.015  -0.796  1.00  0.00     0.015 A 
ATOM     25  C   UNL     1      -2.950  -0.887   0.244  1.00  0.00     0.009 A 
BRANCH  22  26
ATOM     26  C   UNL     1      -2.554   1.981  -2.134  1.00  0.00     0.254 C 
ATOM     27  N   UNL     1      -3.126   3.205  -1.822  1.00  0.00    -0.334 N 
ATOM     28  C   UNL     1      -3.541   3.630  -0.479  1.00  0.00     0.148 C 
ATOM     29  C   UNL     1      -3.367   4.174  -2.892  1.00  0.00     0.148 C 
ATOM     30  C   UNL     1      -4.623   4.713  -0.554  1.00  0.00     0.181 C 
ATOM     31  C   UNL     1      -3.293   5.605  -2.353  1.00  0.00     0.181 C 
ATOM     32  O   UNL     1      -4.218   5.876  -1.289  1.00  0.00    -0.378 OA
ATOM     33  O   UNL     1      -2.272   1.624  -3.273  1.00  0.00    -0.269 OA
ENDBRANCH  22  26
BRANCH  23  34
ATOM     34  C   UNL     1      -1.561  -1.716   2.113  1.00  0.00     0.007 A 
ATOM     35  C   UNL     1      -1.354  -1.376   3.434  1.00  0.00     0.092 A 
ATOM     36  C   UNL     1      -1.391  -3.132   2.004  1.00  0.00     0.007 A 
ATOM     37  N   UNL     1      -1.077  -2.524   4.127  1.00  0.00    -0.361 N 
ATOM     38  C   UNL     1      -1.442  -4.053   0.936  1.00  0.00     0.011 A 
ATOM     39  C   UNL     1      -1.086  -3.609   3.280  1.00  0.00     0.046 A 
ATOM     40  C   UNL     1      -1.194  -5.408   1.182  1.00  0.00     0.001 A 
ATOM     41  C   UNL     1      -0.835  -4.960   3.542  1.00  0.00     0.027 A 
ATOM     42  C   UNL     1      -0.895  -5.852   2.467  1.00  0.00     0.002 A 
ATOM     43  H   UNL     1      -0.873  -2.576   5.115  1.00  0.00     0.166 HD
ENDBRANCH  23  34
ENDBRANCH  19  20
ENDBRANCH   1  19
TORSDOF 9
