MODEL        10USER    Run = 10USERUSER    Estimated Free Energy of Binding    = -10.27 kcal/mol  [=(1)+(2)+(3)-(4)]USERUSER    (1) Final Intermolecular Energy     = -12.95 kcal/molUSER        vdW + Hbond + desolv Energy     = -12.74 kcal/molUSER        Electrostatic Energy            =  -0.21 kcal/molUSER        Moving Ligand-Fixed Receptor    = -12.95 kcal/molUSER        Moving Ligand-Moving Receptor   =  +0.00 kcal/molUSER    (2) Final Total Internal Energy     =  -2.25 kcal/molUSER    (3) Torsional Free Energy           =  +2.68 kcal/molUSER    (4) Unbound System's Energy         =  -2.25 kcal/molUSERUSERREMARK SMILES NC(=O)c1ccccc1CCNc1cnccc1C1=CC=C(C(=O)N2CCOCC2)[C@H]1SCFREMARK SMILES IDX 12 1 11 3 10 4 9 5 4 6 5 7 6 8 8 9 7 10 2 11 1 12 3 15 13 16REMARK SMILES IDX 14 17 18 18 15 19 17 20 16 21 19 22 20 23 31 24 21 25 22 26REMARK SMILES IDX 32 27 33 28 34 29 23 30 25 31 26 32 30 33 27 34 29 35 28 36REMARK SMILES IDX 24 37REMARK H PARENT 12 2 1 13 1 14USER                              x       y       z     vdW  Elec       q    TypeUSER                           _______ _______ _______ _____ _____    ______ ____ROOTATOM      1  N   UNL     1      37.876  47.261  15.748 -0.14 +0.21    -0.383 N  ATOM      2  H   UNL     1      37.306  46.831  16.484 +0.10 -0.10    +0.160 HD ENDROOTBRANCH   1   3ATOM      3  C   UNL     1      39.248  46.743  15.831 -0.43 -0.03    +0.118 C  BRANCH   3   4ATOM      4  C   UNL     1      40.008  47.344  17.020 -0.52 -0.01    +0.057 C  BRANCH   4   5ATOM      5  C   UNL     1      40.133  46.379  18.180 -0.44 +0.00    -0.034 A  ATOM      6  C   UNL     1      41.208  46.398  19.091 -0.44 +0.00    +0.042 A  ATOM      7  C   UNL     1      41.256  45.474  20.147 -0.38 +0.00    +0.014 A  ATOM      8  C   UNL     1      40.239  44.533  20.309 -0.35 +0.00    +0.001 A  ATOM      9  C   UNL     1      39.121  45.419  18.359 -0.42 -0.00    +0.004 A  ATOM     10  C   UNL     1      39.172  44.507  19.416 -0.36 -0.00    +0.000 A  BRANCH   6  11ATOM     11  C   UNL     1      42.327  47.365  18.955 -0.41 +0.01    +0.248 C  ATOM     12  N   UNL     1      43.267  47.341  19.947 -0.26 -0.09    -0.366 N  ATOM     13  H   UNL     1      43.099  46.871  20.826 +0.06 +0.05    +0.159 HD ATOM     14  H   UNL     1      43.957  48.081  19.931 -0.49 -0.01    +0.159 HD ATOM     15  O   UNL     1      42.401  48.150  18.022 -0.52 -0.01    -0.270 OA ENDBRANCH   6  11ENDBRANCH   4   5ENDBRANCH   3   4ENDBRANCH   1   3BRANCH   1  16ATOM     16  C   UNL     1      37.144  47.203  14.549 -0.41 -0.03    +0.060 A  ATOM     17  C   UNL     1      37.261  48.166  13.534 -0.44 -0.06    +0.137 A  ATOM     18  C   UNL     1      36.304  46.095  14.273 -0.43 -0.00    +0.005 A  ATOM     19  N   UNL     1      36.630  48.130  12.335 -0.96 +0.09    -0.263 NA ATOM     20  C   UNL     1      35.657  46.049  13.023 -0.41 -0.02    +0.030 A  ATOM     21  C   UNL     1      35.842  47.070  12.109 -0.48 -0.07    +0.112 A  BRANCH  18  22ATOM     22  C   UNL     1      36.062  44.978  15.223 -0.40 +0.01    -0.021 C  ATOM     23  C   UNL     1      36.609  43.744  15.142 -0.30 -0.00    +0.006 C  ATOM     24  C   UNL     1      35.101  44.995  16.403 -0.30 -0.07    +0.115 C  ATOM     25  C   UNL     1      36.091  42.891  16.182 -0.50 -0.00    +0.011 C  ATOM     26  C   UNL     1      35.239  43.598  16.937 -0.39 -0.01    +0.035 C  BRANCH  24  27ATOM     27  S   UNL     1      35.537  46.232  17.680 -0.44 +0.08    -0.115 SA BRANCH  27  28ATOM     28  C   UNL     1      33.906  46.644  18.338 -0.38 -0.24    +0.285 C  ATOM     29  F   UNL     1      33.448  45.588  19.065 -0.12 +0.11    -0.239 F  ENDBRANCH  27  28ENDBRANCH  24  27BRANCH  26  30ATOM     30  C   UNL     1      34.317  43.033  17.932 -0.24 -0.07    +0.251 C  ATOM     31  N   UNL     1      33.004  42.826  17.557 -0.10 +0.10    -0.334 N  ATOM     32  C   UNL     1      32.485  42.909  16.186 -0.23 -0.08    +0.148 C  ATOM     33  C   UNL     1      32.087  42.214  18.524 -0.30 -0.02    +0.148 C  ATOM     34  C   UNL     1      30.954  42.912  16.168 -0.27 -0.08    +0.181 C  ATOM     35  C   UNL     1      31.169  41.196  17.841 -0.26 -0.03    +0.181 C  ATOM     36  O   UNL     1      30.370  41.760  16.789 -0.13 +0.11    -0.378 OA ATOM     37  O   UNL     1      34.755  42.769  19.049 -0.25 +0.04    -0.269 OA ENDBRANCH  26  30ENDBRANCH  18  22ENDBRANCH   1  16TORSDOF 9TERENDMDL