MODEL        3USER    Run = 3USERUSER    Estimated Free Energy of Binding    = -10.78 kcal/mol  [=(1)+(2)+(3)-(4)]USERUSER    (1) Final Intermolecular Energy     = -14.06 kcal/molUSER        vdW + Hbond + desolv Energy     = -13.78 kcal/molUSER        Electrostatic Energy            =  -0.28 kcal/molUSER        Moving Ligand-Fixed Receptor    = -14.06 kcal/molUSER        Moving Ligand-Moving Receptor   =  +0.00 kcal/molUSER    (2) Final Total Internal Energy     =  -2.79 kcal/molUSER    (3) Torsional Free Energy           =  +3.28 kcal/molUSER    (4) Unbound System's Energy         =  -2.79 kcal/molUSERUSERREMARK SMILES Cc1[nH]c2ccc(O)cc2c1C=C[C@@H](C[C@H](c1ccc(-c2nnn[nH]2)cc1)[C@H](C)O)N1CCOCC1REMARK SMILES IDX 14 1 13 2 12 3 11 4 2 5 3 6 4 7 10 8 5 9 9 10 6 11 7 12 1 13REMARK SMILES IDX 8 15 15 17 16 18 17 19 18 20 27 21 19 22 26 23 20 24 21 25REMARK SMILES IDX 22 26 25 27 23 28 24 29 28 31 29 32 30 33 31 35 32 36 36 37REMARK SMILES IDX 33 38 35 39 34 40REMARK H PARENT 3 14 8 16 25 30 30 34USER                              x       y       z     vdW  Elec       q    TypeUSER                           _______ _______ _______ _____ _____    ______ ____ROOTATOM      1  C   UNL     1      37.610  43.857  19.402 -0.28 -0.01    +0.080 C  ENDROOTBRANCH   1   2ATOM      2  C   UNL     1      36.762  44.992  18.857 -0.30 +0.00    -0.007 C  BRANCH   2   3ATOM      3  C   UNL     1      35.905  45.036  17.823 -0.39 -0.00    +0.008 C  BRANCH   3   4ATOM      4  C   UNL     1      36.261  45.081  16.437 -0.34 -0.00    +0.003 A  ATOM      5  C   UNL     1      36.372  44.008  15.568 -0.38 -0.01    +0.020 A  ATOM      6  N   UNL     1      36.738  44.519  14.344 -0.14 +0.13    -0.358 N  ATOM      7  C   UNL     1      36.904  45.881  14.408 -0.38 -0.02    +0.046 A  ATOM      8  C   UNL     1      36.615  46.267  15.717 -0.37 -0.01    +0.011 A  ATOM      9  C   UNL     1      37.286  46.789  13.413 -0.50 -0.01    +0.030 A  ATOM     10  C   UNL     1      36.711  47.636  16.052 -0.12 -0.06    +0.057 A  ATOM     11  C   UNL     1      37.376  48.137  13.768 -0.52 -0.02    +0.048 A  ATOM     12  C   UNL     1      37.095  48.547  15.064 -0.35 -0.11    +0.116 A  ATOM     13  C   UNL     1      36.194  42.544  15.750 -0.38 -0.02    +0.065 C  ATOM     14  H   UNL     1      36.893  43.968  13.510 +0.11 -0.05    +0.166 HD BRANCH  12  15ATOM     15  O   UNL     1      37.204  49.880  15.342 -0.32 +0.58    -0.508 OA ATOM     16  H   UNL     1      36.361  50.185  15.716 -0.17 -0.62    +0.293 HD ENDBRANCH  12  15ENDBRANCH   3   4ENDBRANCH   2   3ENDBRANCH   1   2BRANCH   1  17ATOM     17  C   UNL     1      39.058  44.033  18.869 -0.25 -0.00    +0.034 C  BRANCH  17  18ATOM     18  C   UNL     1      39.891  45.144  19.563 -0.43 -0.00    +0.049 C  BRANCH  18  19ATOM     19  C   UNL     1      40.296  46.189  18.522 -0.44 +0.00    -0.042 A  ATOM     20  C   UNL     1      41.349  47.085  18.745 -0.45 -0.00    +0.005 A  ATOM     21  C   UNL     1      39.615  46.256  17.300 -0.45 -0.00    +0.005 A  ATOM     22  C   UNL     1      41.710  48.029  17.775 -0.43 -0.00    +0.012 A  ATOM     23  C   UNL     1      39.974  47.199  16.333 -0.49 -0.00    +0.012 A  ATOM     24  C   UNL     1      41.025  48.100  16.555 -0.52 -0.00    +0.021 A  BRANCH  24  25ATOM     25  C   UNL     1      41.367  49.068  15.515 -0.40 -0.01    +0.179 A  ATOM     26  N   UNL     1      41.396  48.868  14.209 -0.50 +0.01    -0.109 NA ATOM     27  N   UNL     1      41.724  50.374  15.720 -0.45 +0.03    -0.239 N  ATOM     28  N   UNL     1      41.770  50.058  13.634 -0.68 +0.01    -0.024 NA ATOM     29  N   UNL     1      41.973  50.985  14.556 -0.53 +0.01    -0.048 NA ATOM     30  H   UNL     1      41.816  50.893  16.581 -0.45 -0.05    +0.194 HD ENDBRANCH  24  25ENDBRANCH  18  19BRANCH  18  31ATOM     31  C   UNL     1      41.077  44.590  20.399 -0.34 +0.01    +0.118 C  ATOM     32  C   UNL     1      40.652  43.627  21.505 -0.26 +0.00    +0.039 C  BRANCH  31  33ATOM     33  O   UNL     1      41.856  45.649  20.962 -0.15 -0.07    -0.393 OA ATOM     34  H   UNL     1      41.552  45.776  21.877 +0.11 +0.03    +0.210 HD ENDBRANCH  31  33ENDBRANCH  18  31ENDBRANCH  17  18ENDBRANCH   1  17BRANCH   1  35ATOM     35  N   UNL     1      37.597  43.548  20.838 -0.18 -0.00    -0.292 NA ATOM     36  C   UNL     1      37.412  44.671  21.769 -0.29 +0.01    +0.113 C  ATOM     37  C   UNL     1      36.751  42.400  21.201 -0.45 +0.00    +0.113 C  ATOM     38  C   UNL     1      37.564  44.211  23.229 -0.28 +0.02    +0.175 C  ATOM     39  C   UNL     1      36.931  42.020  22.679 -0.44 +0.01    +0.175 C  ATOM     40  O   UNL     1      36.667  43.137  23.538 -0.20 -0.05    -0.379 OA ENDBRANCH   1  35TORSDOF 11TERENDMDL