REMARK SMILES NC(=O)c1ccccc1CCNc1cnccc1C1=CC=C(C(=O)N2CCOCC2)[C@H]1SCF
REMARK SMILES IDX 12 1 11 3 10 4 9 5 4 6 5 7 6 8 8 9 7 10 2 11 1 12 3 15 13 16
REMARK SMILES IDX 14 17 18 18 15 19 17 20 16 21 19 22 20 23 31 24 21 25 22 26
REMARK SMILES IDX 32 27 33 28 34 29 23 30 25 31 26 32 30 33 27 34 29 35 28 36
REMARK SMILES IDX 24 37
REMARK H PARENT 12 2 1 13 1 14
ROOT
ATOM      1  N   UNL     1       1.288  -0.797  -0.284  1.00  0.00    -0.383 N 
ATOM      2  H   UNL     1       0.628  -1.497   0.071  1.00  0.00     0.160 HD
ENDROOT
BRANCH   1   3
ATOM      3  C   UNL     1       2.537  -0.871   0.486  1.00  0.00     0.118 C 
BRANCH   3   4
ATOM      4  C   UNL     1       3.393   0.387   0.296  1.00  0.00     0.057 C 
BRANCH   4   5
ATOM      5  C   UNL     1       4.495   0.504   1.328  1.00  0.00    -0.034 A 
ATOM      6  C   UNL     1       5.789  -0.021   1.142  1.00  0.00     0.042 A 
ATOM      7  C   UNL     1       6.763   0.129   2.143  1.00  0.00     0.014 A 
ATOM      8  C   UNL     1       6.463   0.803   3.326  1.00  0.00     0.001 A 
ATOM      9  C   UNL     1       4.212   1.176   2.531  1.00  0.00     0.004 A 
ATOM     10  C   UNL     1       5.188   1.327   3.519  1.00  0.00     0.000 A 
BRANCH   6  11
ATOM     11  C   UNL     1       6.159  -0.764  -0.089  1.00  0.00     0.248 C 
ATOM     12  N   UNL     1       7.363  -0.440  -0.650  1.00  0.00    -0.366 N 
ATOM     13  H   UNL     1       7.860   0.401  -0.390  1.00  0.00     0.159 HD
ATOM     14  H   UNL     1       7.561  -0.845  -1.556  1.00  0.00     0.159 HD
ATOM     15  O   UNL     1       5.428  -1.607  -0.586  1.00  0.00    -0.270 OA
ENDBRANCH   6  11
ENDBRANCH   4   5
ENDBRANCH   3   4
ENDBRANCH   1   3
BRANCH   1  16
ATOM     16  C   UNL     1       1.288  -0.880  -1.687  1.00  0.00     0.060 A 
ATOM     17  C   UNL     1       2.339  -1.454  -2.420  1.00  0.00     0.137 A 
ATOM     18  C   UNL     1       0.158  -0.457  -2.432  1.00  0.00     0.005 A 
ATOM     19  N   UNL     1       2.367  -1.617  -3.765  1.00  0.00    -0.263 NA
ATOM     20  C   UNL     1       0.179  -0.637  -3.828  1.00  0.00     0.030 A 
ATOM     21  C   UNL     1       1.284  -1.204  -4.437  1.00  0.00     0.112 A 
BRANCH  18  22
ATOM     22  C   UNL     1      -1.049   0.167  -1.829  1.00  0.00    -0.021 C 
ATOM     23  C   UNL     1      -1.901   1.004  -2.462  1.00  0.00     0.006 C 
ATOM     24  C   UNL     1      -1.495   0.041  -0.379  1.00  0.00     0.115 C 
ATOM     25  C   UNL     1      -2.912   1.481  -1.552  1.00  0.00     0.011 C 
ATOM     26  C   UNL     1      -2.713   0.919  -0.351  1.00  0.00     0.035 C 
BRANCH  24  27
ATOM     27  S   UNL     1      -1.910  -1.673   0.110  1.00  0.00    -0.115 SA
BRANCH  27  28
ATOM     28  C   UNL     1      -2.848  -2.230  -1.330  1.00  0.00     0.285 C 
ATOM     29  F   UNL     1      -3.498  -3.382  -1.009  1.00  0.00    -0.239 F 
ENDBRANCH  27  28
ENDBRANCH  24  27
BRANCH  26  30
ATOM     30  C   UNL     1      -3.365   1.334   0.898  1.00  0.00     0.251 C 
ATOM     31  N   UNL     1      -4.722   1.107   1.029  1.00  0.00    -0.334 N 
ATOM     32  C   UNL     1      -5.540   0.287   0.128  1.00  0.00     0.148 C 
ATOM     33  C   UNL     1      -5.374   1.469   2.292  1.00  0.00     0.148 C 
ATOM     34  C   UNL     1      -7.035   0.486   0.395  1.00  0.00     0.181 C 
ATOM     35  C   UNL     1      -6.388   0.401   2.711  1.00  0.00     0.181 C 
ATOM     36  O   UNL     1      -7.423   0.180   1.740  1.00  0.00    -0.378 OA
ATOM     37  O   UNL     1      -2.677   1.861   1.769  1.00  0.00    -0.269 OA
ENDBRANCH  26  30
ENDBRANCH  18  22
ENDBRANCH   1  16
TORSDOF 9
