REMARK SMILES Cc1[nH]c2ccc(O)cc2c1C=C[C@@H](C[C@H](c1ccc(-c2nnn[nH]2)cc1)[C@H](C)O)N1CCOCC1
REMARK SMILES IDX 14 1 13 2 12 3 11 4 2 5 3 6 4 7 10 8 5 9 9 10 6 11 7 12 1 13
REMARK SMILES IDX 8 15 15 17 16 18 17 19 18 20 27 21 19 22 26 23 20 24 21 25
REMARK SMILES IDX 22 26 25 27 23 28 24 29 28 31 29 32 30 33 31 35 32 36 36 37
REMARK SMILES IDX 33 38 35 39 34 40
REMARK H PARENT 3 14 8 16 25 30 30 34
ROOT
ATOM      1  C   UNL     1       0.273  -0.880   0.520  1.00  0.00     0.080 C 
ENDROOT
BRANCH   1   2
ATOM      2  C   UNL     1       1.399   0.086   0.843  1.00  0.00    -0.007 C 
BRANCH   2   3
ATOM      3  C   UNL     1       2.628   0.217   0.316  1.00  0.00     0.008 C 
BRANCH   3   4
ATOM      4  C   UNL     1       3.621   1.165   0.723  1.00  0.00     0.003 A 
ATOM      5  C   UNL     1       3.410   2.473   1.129  1.00  0.00     0.020 A 
ATOM      6  N   UNL     1       4.644   3.007   1.420  1.00  0.00    -0.358 N 
ATOM      7  C   UNL     1       5.645   2.097   1.177  1.00  0.00     0.046 A 
ATOM      8  C   UNL     1       5.033   0.926   0.731  1.00  0.00     0.011 A 
ATOM      9  C   UNL     1       7.032   2.226   1.317  1.00  0.00     0.030 A 
ATOM     10  C   UNL     1       5.851  -0.180   0.408  1.00  0.00     0.057 A 
ATOM     11  C   UNL     1       7.820   1.120   0.990  1.00  0.00     0.048 A 
ATOM     12  C   UNL     1       7.236  -0.057   0.543  1.00  0.00     0.116 A 
ATOM     13  C   UNL     1       2.182   3.299   1.260  1.00  0.00     0.065 C 
ATOM     14  H   UNL     1       4.804   3.951   1.744  1.00  0.00     0.166 HD
BRANCH  12  15
ATOM     15  O   UNL     1       8.067  -1.098   0.240  1.00  0.00    -0.508 OA
ATOM     16  H   UNL     1       7.526  -1.839  -0.079  1.00  0.00     0.293 HD
ENDBRANCH  12  15
ENDBRANCH   3   4
ENDBRANCH   2   3
ENDBRANCH   1   2
BRANCH   1  17
ATOM     17  C   UNL     1      -1.008  -0.052   0.228  1.00  0.00     0.034 C 
BRANCH  17  18
ATOM     18  C   UNL     1      -2.300  -0.883   0.004  1.00  0.00     0.049 C 
BRANCH  18  19
ATOM     19  C   UNL     1      -3.444   0.061  -0.369  1.00  0.00    -0.042 A 
ATOM     20  C   UNL     1      -3.967   0.986   0.543  1.00  0.00     0.005 A 
ATOM     21  C   UNL     1      -3.986   0.022  -1.660  1.00  0.00     0.005 A 
ATOM     22  C   UNL     1      -5.010   1.847   0.179  1.00  0.00     0.012 A 
ATOM     23  C   UNL     1      -5.027   0.881  -2.023  1.00  0.00     0.012 A 
ATOM     24  C   UNL     1      -5.556   1.805  -1.111  1.00  0.00     0.021 A 
BRANCH  24  25
ATOM     25  C   UNL     1      -6.644   2.684  -1.534  1.00  0.00     0.179 A 
ATOM     26  N   UNL     1      -7.241   2.713  -2.713  1.00  0.00    -0.109 NA
ATOM     27  N   UNL     1      -7.243   3.647  -0.767  1.00  0.00    -0.239 N 
ATOM     28  N   UNL     1      -8.198   3.696  -2.648  1.00  0.00    -0.024 NA
ATOM     29  N   UNL     1      -8.204   4.272  -1.457  1.00  0.00    -0.048 NA
ATOM     30  H   UNL     1      -7.059   3.923   0.187  1.00  0.00     0.194 HD
ENDBRANCH  24  25
ENDBRANCH  18  19
BRANCH  18  31
ATOM     31  C   UNL     1      -2.627  -1.839   1.185  1.00  0.00     0.118 C 
ATOM     32  C   UNL     1      -3.957  -2.573   1.031  1.00  0.00     0.039 C 
BRANCH  31  33
ATOM     33  O   UNL     1      -2.606  -1.146   2.435  1.00  0.00    -0.393 OA
ATOM     34  H   UNL     1      -2.824  -1.793   3.128  1.00  0.00     0.210 HD
ENDBRANCH  31  33
ENDBRANCH  18  31
ENDBRANCH  17  18
ENDBRANCH   1  17
BRANCH   1  35
ATOM     35  N   UNL     1       0.471  -1.939  -0.478  1.00  0.00    -0.292 NA
ATOM     36  C   UNL     1       0.677  -1.522  -1.873  1.00  0.00     0.113 C 
ATOM     37  C   UNL     1       1.434  -2.976  -0.076  1.00  0.00     0.113 C 
ATOM     38  C   UNL     1       0.725  -2.739  -2.814  1.00  0.00     0.175 C 
ATOM     39  C   UNL     1       1.450  -4.141  -1.078  1.00  0.00     0.175 C 
ATOM     40  O   UNL     1       1.727  -3.679  -2.406  1.00  0.00    -0.379 OA
ENDBRANCH   1  35
TORSDOF 11
