REMARK SMILES C[C@H](O)[C@H](CCCc1cc(-c2c[nH]c3ccncc23)ccc1C(=O)N1CCOCC1)c1ccc(-c2nnn[nH]2)cc1
REMARK SMILES IDX 5 1 4 2 2 3 1 4 3 5 31 7 32 8 41 9 33 10 40 11 34 12 35 13
REMARK SMILES IDX 36 14 39 15 37 16 38 17 6 19 7 20 8 21 9 22 22 23 10 24
REMARK SMILES IDX 21 25 20 26 23 27 25 28 26 29 30 30 27 31 29 32 28 33 24 34
REMARK SMILES IDX 11 35 12 36 19 37 13 38 18 39 14 40 17 41 15 42 16 43
REMARK H PARENT 3 6 39 18 13 44
ROOT
ATOM      1  C   UNL     1       1.595   0.147   0.634  1.00  0.00     0.011 C 
ENDROOT
BRANCH   1   2
ATOM      2  C   UNL     1       2.387  -0.463  -0.549  1.00  0.00     0.048 C 
BRANCH   2   3
ATOM      3  C   UNL     1       2.009   0.153  -1.926  1.00  0.00     0.118 C 
ATOM      4  C   UNL     1       2.859  -0.361  -3.086  1.00  0.00     0.039 C 
BRANCH   3   5
ATOM      5  O   UNL     1       2.064   1.579  -1.889  1.00  0.00    -0.393 OA
ATOM      6  H   UNL     1       1.808   1.905  -2.771  1.00  0.00     0.210 HD
ENDBRANCH   3   5
ENDBRANCH   2   3
BRANCH   2   7
ATOM      7  C   UNL     1       3.882  -0.406  -0.240  1.00  0.00    -0.042 A 
ATOM      8  C   UNL     1       4.607  -1.593  -0.075  1.00  0.00     0.005 A 
ATOM      9  C   UNL     1       4.560   0.812  -0.108  1.00  0.00     0.005 A 
ATOM     10  C   UNL     1       5.976  -1.557   0.211  1.00  0.00     0.012 A 
ATOM     11  C   UNL     1       5.930   0.847   0.179  1.00  0.00     0.012 A 
ATOM     12  C   UNL     1       6.657  -0.339   0.345  1.00  0.00     0.021 A 
BRANCH  12  13
ATOM     13  C   UNL     1       8.086  -0.348   0.647  1.00  0.00     0.179 A 
ATOM     14  N   UNL     1       8.887  -1.398   0.718  1.00  0.00    -0.109 NA
ATOM     15  N   UNL     1       8.854   0.751   0.925  1.00  0.00    -0.239 N 
ATOM     16  N   UNL     1      10.136  -0.923   1.032  1.00  0.00    -0.024 NA
ATOM     17  N   UNL     1      10.123   0.394   1.161  1.00  0.00    -0.048 NA
ATOM     18  H   UNL     1       8.595   1.726   0.976  1.00  0.00     0.194 HD
ENDBRANCH  12  13
ENDBRANCH   2   7
ENDBRANCH   1   2
BRANCH   1  19
ATOM     19  C   UNL     1       0.079  -0.022   0.503  1.00  0.00     0.005 C 
BRANCH  19  20
ATOM     20  C   UNL     1      -0.645   0.478   1.756  1.00  0.00     0.036 C 
BRANCH  20  21
ATOM     21  C   UNL     1      -2.147   0.444   1.596  1.00  0.00    -0.035 A 
ATOM     22  C   UNL     1      -2.792   1.555   1.022  1.00  0.00     0.013 A 
ATOM     23  C   UNL     1      -2.935  -0.653   1.984  1.00  0.00     0.043 A 
ATOM     24  C   UNL     1      -4.186   1.587   0.864  1.00  0.00    -0.016 A 
ATOM     25  C   UNL     1      -4.331  -0.615   1.863  1.00  0.00     0.015 A 
ATOM     26  C   UNL     1      -4.952   0.500   1.300  1.00  0.00     0.009 A 
BRANCH  23  27
ATOM     27  C   UNL     1      -2.326  -1.869   2.564  1.00  0.00     0.254 C 
ATOM     28  N   UNL     1      -2.195  -2.986   1.750  1.00  0.00    -0.334 N 
ATOM     29  C   UNL     1      -2.596  -3.061   0.339  1.00  0.00     0.148 C 
ATOM     30  C   UNL     1      -1.470  -4.152   2.256  1.00  0.00     0.148 C 
ATOM     31  C   UNL     1      -2.565  -4.503  -0.177  1.00  0.00     0.181 C 
ATOM     32  C   UNL     1      -0.577  -4.743   1.160  1.00  0.00     0.181 C 
ATOM     33  O   UNL     1      -1.282  -5.125  -0.033  1.00  0.00    -0.378 OA
ATOM     34  O   UNL     1      -1.955  -1.825   3.733  1.00  0.00    -0.269 OA
ENDBRANCH  23  27
BRANCH  24  35
ATOM     35  C   UNL     1      -4.820   2.739   0.248  1.00  0.00     0.009 A 
ATOM     36  C   UNL     1      -5.875   3.417   0.824  1.00  0.00     0.092 A 
ATOM     37  C   UNL     1      -4.516   3.397  -0.987  1.00  0.00     0.026 A 
ATOM     38  N   UNL     1      -6.216   4.456  -0.002  1.00  0.00    -0.360 N 
ATOM     39  C   UNL     1      -3.584   3.185  -2.012  1.00  0.00     0.121 A 
ATOM     40  C   UNL     1      -5.406   4.465  -1.113  1.00  0.00     0.049 A 
ATOM     41  N   UNL     1      -3.542   4.005  -3.092  1.00  0.00    -0.264 NA
ATOM     42  C   UNL     1      -5.385   5.322  -2.212  1.00  0.00     0.047 A 
ATOM     43  C   UNL     1      -4.420   5.029  -3.165  1.00  0.00     0.113 A 
ATOM     44  H   UNL     1      -6.954   5.124   0.178  1.00  0.00     0.166 HD
ENDBRANCH  24  35
ENDBRANCH  20  21
ENDBRANCH  19  20
ENDBRANCH   1  19
TORSDOF 10
