REMARK SMILES Cc1[nH]c2ccccc2c1C(=O)N[C@H](C[C@H](c1ccc(-c2nnn[nH]2)cc1)[C@H](C)O)N1CCOCC1
REMARK SMILES IDX 15 1 14 2 13 3 11 4 12 5 10 7 2 8 3 9 4 10 9 11 5 12 8 13
REMARK SMILES IDX 6 14 7 15 1 16 31 18 32 19 36 20 33 21 35 22 34 23 16 24
REMARK SMILES IDX 17 25 18 26 27 27 19 28 26 29 20 30 21 31 22 32 25 33 23 34
REMARK SMILES IDX 24 35 28 37 29 38 30 39
REMARK H PARENT 13 6 3 17 25 36 30 40
ROOT
ATOM      1  C   UNL     1       1.029   1.406  -0.168  1.00  0.00     0.052 C 
ENDROOT
BRANCH   1   2
ATOM      2  C   UNL     1      -0.388   1.867  -0.579  1.00  0.00     0.153 C 
BRANCH   2   3
ATOM      3  N   UNL     1      -1.391   0.930  -0.148  1.00  0.00    -0.336 N 
ATOM      4  C   UNL     1      -1.958  -0.002  -0.982  1.00  0.00     0.254 C 
ATOM      5  O   UNL     1      -1.531  -0.193  -2.119  1.00  0.00    -0.269 OA
ATOM      6  H   UNL     1      -1.770   1.090   0.765  1.00  0.00     0.165 HD
BRANCH   4   7
ATOM      7  C   UNL     1      -3.062  -0.790  -0.422  1.00  0.00     0.068 A 
ATOM      8  C   UNL     1      -3.913  -0.486   0.642  1.00  0.00     0.026 A 
ATOM      9  N   UNL     1      -4.785  -1.540   0.791  1.00  0.00    -0.358 N 
ATOM     10  C   UNL     1      -4.567  -2.501  -0.161  1.00  0.00     0.046 A 
ATOM     11  C   UNL     1      -3.500  -2.064  -0.941  1.00  0.00     0.012 A 
ATOM     12  C   UNL     1      -5.239  -3.709  -0.392  1.00  0.00     0.027 A 
ATOM     13  C   UNL     1      -3.084  -2.886  -2.014  1.00  0.00     0.011 A 
ATOM     14  C   UNL     1      -4.809  -4.497  -1.463  1.00  0.00     0.002 A 
ATOM     15  C   UNL     1      -3.746  -4.094  -2.266  1.00  0.00     0.001 A 
ATOM     16  C   UNL     1      -4.042   0.703   1.529  1.00  0.00     0.065 C 
ATOM     17  H   UNL     1      -5.521  -1.591   1.483  1.00  0.00     0.166 HD
ENDBRANCH   4   7
ENDBRANCH   2   3
BRANCH   2  18
ATOM     18  N   UNL     1      -0.899   3.114  -0.011  1.00  0.00    -0.279 NA
ATOM     19  C   UNL     1      -1.025   4.198  -1.000  1.00  0.00     0.115 C 
ATOM     20  C   UNL     1      -0.299   3.643   1.224  1.00  0.00     0.115 C 
ATOM     21  C   UNL     1       0.283   4.973  -1.200  1.00  0.00     0.175 C 
ATOM     22  C   UNL     1       0.944   4.531   1.024  1.00  0.00     0.175 C 
ATOM     23  O   UNL     1       0.731   5.543   0.034  1.00  0.00    -0.379 OA
ENDBRANCH   2  18
ENDBRANCH   1   2
BRANCH   1  24
ATOM     24  C   UNL     1       1.511   0.084  -0.823  1.00  0.00     0.051 C 
BRANCH  24  25
ATOM     25  C   UNL     1       2.346  -0.707   0.192  1.00  0.00    -0.042 A 
ATOM     26  C   UNL     1       1.920  -1.974   0.608  1.00  0.00     0.005 A 
ATOM     27  C   UNL     1       3.536  -0.194   0.726  1.00  0.00     0.005 A 
ATOM     28  C   UNL     1       2.671  -2.720   1.523  1.00  0.00     0.012 A 
ATOM     29  C   UNL     1       4.283  -0.938   1.642  1.00  0.00     0.012 A 
ATOM     30  C   UNL     1       3.867  -2.214   2.047  1.00  0.00     0.021 A 
BRANCH  30  31
ATOM     31  C   UNL     1       4.690  -2.968   2.987  1.00  0.00     0.179 A 
ATOM     32  N   UNL     1       5.679  -2.512   3.736  1.00  0.00    -0.109 NA
ATOM     33  N   UNL     1       4.598  -4.312   3.226  1.00  0.00    -0.239 N 
ATOM     34  N   UNL     1       6.170  -3.587   4.437  1.00  0.00    -0.024 NA
ATOM     35  N   UNL     1       5.511  -4.693   4.128  1.00  0.00    -0.048 NA
ATOM     36  H   UNL     1       3.986  -5.003   2.814  1.00  0.00     0.194 HD
ENDBRANCH  30  31
ENDBRANCH  24  25
BRANCH  24  37
ATOM     37  C   UNL     1       2.307   0.266  -2.148  1.00  0.00     0.119 C 
ATOM     38  C   UNL     1       1.644   1.152  -3.195  1.00  0.00     0.039 C 
BRANCH  37  39
ATOM     39  O   UNL     1       2.513  -1.016  -2.760  1.00  0.00    -0.393 OA
ATOM     40  H   UNL     1       1.636  -1.372  -2.991  1.00  0.00     0.210 HD
ENDBRANCH  37  39
ENDBRANCH  24  37
ENDBRANCH   1  24
TORSDOF 9
