MODEL        10USER    Run = 10USERUSER    Estimated Free Energy of Binding    = -10.69 kcal/mol  [=(1)+(2)+(3)-(4)]USERUSER    (1) Final Intermolecular Energy     = -13.08 kcal/molUSER        vdW + Hbond + desolv Energy     = -13.12 kcal/molUSER        Electrostatic Energy            =  +0.04 kcal/molUSER        Moving Ligand-Fixed Receptor    = -13.08 kcal/molUSER        Moving Ligand-Moving Receptor   =  +0.00 kcal/molUSER    (2) Final Total Internal Energy     =  -1.95 kcal/molUSER    (3) Torsional Free Energy           =  +2.39 kcal/molUSER    (4) Unbound System's Energy         =  -1.95 kcal/molUSERUSERREMARK SMILES Cn1cc(-c2ccc(CNCc3ccc(-c4ncc(C#N)cc4-c4ccc(F)cc4)cc3)cc2)cn1REMARK SMILES IDX 10 1 9 3 8 4 5 5 6 6 34 7 7 8 33 9 4 10 2 11 3 12 36 13REMARK SMILES IDX 35 14 1 15 11 16 12 17 13 18 32 19 14 20 31 21 15 22 16 23REMARK SMILES IDX 17 24 23 25 18 26 22 27 19 28 24 29 25 30 30 31 26 32 29 33REMARK SMILES IDX 27 34 28 35 20 36 21 37REMARK H PARENT 10 2USER                              x       y       z     vdW  Elec       q    TypeUSER                           _______ _______ _______ _____ _____    ______ ____ROOTATOM      1  N   UNL     1      41.830  46.698  19.883 -0.23 -0.03    -0.309 NA ATOM      2  H   UNL     1      41.048  47.341  19.996 +0.08 +0.00    +0.123 HD ENDROOTBRANCH   1   3ATOM      3  C   UNL     1      41.376  45.536  19.123 -0.42 +0.01    +0.117 C  BRANCH   3   4ATOM      4  C   UNL     1      40.503  45.969  17.968 -0.46 +0.00    -0.034 A  ATOM      5  C   UNL     1      38.880  46.756  15.790 -0.43 +0.00    -0.015 A  ATOM      6  C   UNL     1      40.089  47.412  16.056 -0.51 -0.00    +0.009 A  ATOM      7  C   UNL     1      38.497  45.694  16.621 -0.37 -0.00    +0.009 A  ATOM      8  C   UNL     1      40.895  47.022  17.132 -0.46 -0.00    +0.006 A  ATOM      9  C   UNL     1      39.301  45.303  17.697 -0.38 -0.00    +0.006 A  BRANCH   5  10ATOM     10  C   UNL     1      38.057  47.169  14.666 -0.44 -0.01    +0.020 A  ATOM     11  N   UNL     1      36.686  47.116  12.949 -0.38 +0.12    -0.275 N  ATOM     12  C   UNL     1      37.317  46.324  13.863 -0.37 -0.05    +0.117 A  ATOM     13  N   UNL     1      36.956  48.425  13.094 -0.88 +0.06    -0.181 NA ATOM     14  C   UNL     1      37.788  48.454  14.139 -0.42 -0.07    +0.143 A  ATOM     15  C   UNL     1      35.796  46.688  11.897 -0.49 -0.10    +0.173 C  ENDBRANCH   5  10ENDBRANCH   3   4ENDBRANCH   1   3BRANCH   1  16ATOM     16  C   UNL     1      42.363  46.340  21.195 -0.32 +0.03    +0.117 C  BRANCH  16  17ATOM     17  C   UNL     1      41.385  45.577  22.058 -0.24 -0.00    -0.034 A  ATOM     18  C   UNL     1      41.365  44.177  22.049 -0.27 +0.00    +0.006 A  ATOM     19  C   UNL     1      40.465  46.257  22.864 -0.24 +0.00    +0.006 A  ATOM     20  C   UNL     1      40.446  43.473  22.834 -0.26 +0.00    +0.011 A  ATOM     21  C   UNL     1      39.549  45.550  23.650 -0.23 +0.00    +0.011 A  ATOM     22  C   UNL     1      39.530  44.144  23.659 -0.20 +0.00    +0.001 A  BRANCH  22  23ATOM     23  C   UNL     1      38.556  43.420  24.499 -0.20 +0.00    +0.078 A  ATOM     24  N   UNL     1      38.928  43.334  25.809 -0.08 +0.00    -0.254 NA ATOM     25  C   UNL     1      37.352  42.864  24.018 -0.37 +0.00    +0.009 A  ATOM     26  C   UNL     1      38.094  42.712  26.672 -0.22 -0.01    +0.131 A  ATOM     27  C   UNL     1      36.519  42.227  24.958 -0.39 -0.00    +0.032 A  ATOM     28  C   UNL     1      36.888  42.151  26.300 -0.36 -0.01    +0.071 A  BRANCH  25  29ATOM     29  C   UNL     1      36.944  42.883  22.602 -0.41 -0.00    -0.016 A  ATOM     30  C   UNL     1      36.540  41.704  21.949 -0.55 +0.00    +0.012 A  ATOM     31  C   UNL     1      36.937  44.087  21.874 -0.36 +0.00    +0.012 A  ATOM     32  C   UNL     1      36.153  41.728  20.606 -0.43 -0.00    +0.040 A  ATOM     33  C   UNL     1      36.549  44.109  20.532 -0.37 -0.00    +0.040 A  ATOM     34  C   UNL     1      36.162  42.929  19.911 -0.33 -0.01    +0.123 A  ATOM     35  F   UNL     1      35.792  42.950  18.624 -0.06 +0.04    -0.207 F  ENDBRANCH  25  29BRANCH  28  36ATOM     36  C   UNL     1      36.056  41.507  27.266 -0.57 -0.03    +0.101 C  ATOM     37  N   UNL     1      35.379  40.987  28.050 -0.50 +0.10    -0.192 NA ENDBRANCH  28  36ENDBRANCH  22  23ENDBRANCH  16  17ENDBRANCH   1  16TORSDOF 8TERENDMDL