REMARK SMILES Cn1cc(-c2ccc(CNCc3ccc(-c4ncc(C#N)cc4-c4ccc(F)cc4)cc3)cc2)cn1
REMARK SMILES IDX 10 1 9 3 8 4 5 5 6 6 34 7 7 8 33 9 4 10 2 11 3 12 36 13
REMARK SMILES IDX 35 14 1 15 11 16 12 17 13 18 32 19 14 20 31 21 15 22 16 23
REMARK SMILES IDX 17 24 23 25 18 26 22 27 19 28 24 29 25 30 30 31 26 32 29 33
REMARK SMILES IDX 27 34 28 35 20 36 21 37
REMARK H PARENT 10 2
ROOT
ATOM      1  N   UNL     1       1.335  -1.942  -0.885  1.00  0.00    -0.309 NA
ATOM      2  H   UNL     1       1.284  -1.983   0.131  1.00  0.00     0.123 HD
ENDROOT
BRANCH   1   3
ATOM      3  C   UNL     1       1.836  -0.628  -1.278  1.00  0.00     0.117 C 
BRANCH   3   4
ATOM      4  C   UNL     1       3.188  -0.370  -0.654  1.00  0.00    -0.034 A 
ATOM      5  C   UNL     1       5.716   0.088   0.527  1.00  0.00    -0.015 A 
ATOM      6  C   UNL     1       4.568   0.717   1.026  1.00  0.00     0.009 A 
ATOM      7  C   UNL     1       5.583  -0.781  -0.564  1.00  0.00     0.009 A 
ATOM      8  C   UNL     1       3.316   0.490   0.444  1.00  0.00     0.006 A 
ATOM      9  C   UNL     1       4.332  -1.010  -1.147  1.00  0.00     0.006 A 
BRANCH   5  10
ATOM     10  C   UNL     1       7.009   0.330   1.145  1.00  0.00     0.020 A 
ATOM     11  N   UNL     1       9.174   0.573   1.435  1.00  0.00    -0.275 N 
ATOM     12  C   UNL     1       8.228   0.263   0.502  1.00  0.00     0.117 A 
ATOM     13  N   UNL     1       8.663   0.842   2.649  1.00  0.00    -0.181 NA
ATOM     14  C   UNL     1       7.347   0.695   2.470  1.00  0.00     0.143 A 
ATOM     15  C   UNL     1      10.602   0.638   1.237  1.00  0.00     0.173 C 
ENDBRANCH   5  10
ENDBRANCH   3   4
ENDBRANCH   1   3
BRANCH   1  16
ATOM     16  C   UNL     1       0.021  -2.237  -1.452  1.00  0.00     0.117 C 
BRANCH  16  17
ATOM     17  C   UNL     1      -1.103  -1.454  -0.815  1.00  0.00    -0.034 A 
ATOM     18  C   UNL     1      -1.721  -0.402  -1.502  1.00  0.00     0.006 A 
ATOM     19  C   UNL     1      -1.530  -1.751   0.485  1.00  0.00     0.006 A 
ATOM     20  C   UNL     1      -2.748   0.334  -0.902  1.00  0.00     0.011 A 
ATOM     21  C   UNL     1      -2.559  -1.014   1.080  1.00  0.00     0.011 A 
ATOM     22  C   UNL     1      -3.196   0.034   0.394  1.00  0.00     0.001 A 
BRANCH  22  23
ATOM     23  C   UNL     1      -4.282   0.795   1.042  1.00  0.00     0.078 A 
ATOM     24  N   UNL     1      -3.930   1.318   2.252  1.00  0.00    -0.254 NA
ATOM     25  C   UNL     1      -5.565   0.979   0.484  1.00  0.00     0.009 A 
ATOM     26  C   UNL     1      -4.844   2.057   2.921  1.00  0.00     0.131 A 
ATOM     27  C   UNL     1      -6.479   1.757   1.221  1.00  0.00     0.032 A 
ATOM     28  C   UNL     1      -6.119   2.306   2.450  1.00  0.00     0.071 A 
BRANCH  25  29
ATOM     29  C   UNL     1      -6.002   0.382  -0.790  1.00  0.00    -0.016 A 
ATOM     30  C   UNL     1      -6.069  -1.014  -0.950  1.00  0.00     0.012 A 
ATOM     31  C   UNL     1      -6.375   1.198  -1.874  1.00  0.00     0.012 A 
ATOM     32  C   UNL     1      -6.485  -1.576  -2.160  1.00  0.00     0.040 A 
ATOM     33  C   UNL     1      -6.791   0.635  -3.083  1.00  0.00     0.040 A 
ATOM     34  C   UNL     1      -6.841  -0.747  -3.214  1.00  0.00     0.123 A 
ATOM     35  F   UNL     1      -7.238  -1.286  -4.374  1.00  0.00    -0.207 F 
ENDBRANCH  25  29
BRANCH  28  36
ATOM     36  C   UNL     1      -7.034   3.095   3.211  1.00  0.00     0.101 C 
ATOM     37  N   UNL     1      -7.778   3.737   3.826  1.00  0.00    -0.192 NA
ENDBRANCH  28  36
ENDBRANCH  22  23
ENDBRANCH  16  17
ENDBRANCH   1  16
TORSDOF 8
