REMARK SMILES CO[C@H]1CN(c2cc(Nc3cc(C)[nH]n3)nc(C)c2CCNC(=O)[C@@H](F)NO)CC[C@H]1F
REMARK SMILES IDX 21 1 20 2 19 3 6 4 7 5 8 6 17 7 16 8 18 9 5 10 3 11 4 12
REMARK SMILES IDX 31 13 30 14 29 15 32 16 2 17 1 18 9 19 10 21 11 22 15 23
REMARK SMILES IDX 12 24 14 25 13 26 22 28 23 29 24 31 25 32 26 33 27 34 28 36
REMARK H PARENT 9 20 14 27 22 30 27 35 28 37
ROOT
ATOM      1  C   UNL     1       3.229  -0.162   1.169  1.00  0.00     0.121 C 
ENDROOT
BRANCH   1   2
ATOM      2  C   UNL     1       1.948  -0.250   2.016  1.00  0.00     0.061 C 
BRANCH   2   3
ATOM      3  C   UNL     1       0.671  -0.311   1.194  1.00  0.00    -0.001 A 
ATOM      4  C   UNL     1       0.291   0.760   0.358  1.00  0.00     0.046 A 
ATOM      5  C   UNL     1      -0.820   0.583  -0.474  1.00  0.00     0.073 A 
ATOM      6  C   UNL     1      -1.528  -0.615  -0.479  1.00  0.00     0.133 A 
ATOM      7  C   UNL     1      -0.125  -1.466   1.178  1.00  0.00     0.045 A 
ATOM      8  N   UNL     1      -1.188  -1.615   0.351  1.00  0.00    -0.236 NA
ATOM      9  C   UNL     1       0.132  -2.648   2.070  1.00  0.00     0.067 C 
BRANCH   4  10
ATOM     10  N   UNL     1       0.991   1.969   0.386  1.00  0.00    -0.368 N 
ATOM     11  C   UNL     1       1.105   4.121  -0.923  1.00  0.00     0.171 C 
ATOM     12  C   UNL     1       1.412   2.608  -0.883  1.00  0.00     0.151 C 
ATOM     13  C   UNL     1      -0.288   4.318  -0.322  1.00  0.00     0.199 C 
ATOM     14  C   UNL     1      -0.363   3.910   1.142  1.00  0.00     0.062 C 
ATOM     15  C   UNL     1       0.678   2.858   1.515  1.00  0.00     0.120 C 
ATOM     16  F   UNL     1      -0.681   5.616  -0.445  1.00  0.00    -0.244 F 
BRANCH  11  17
ATOM     17  O   UNL     1       2.144   4.807  -0.198  1.00  0.00    -0.377 OA
ATOM     18  C   UNL     1       2.104   6.221  -0.341  1.00  0.00     0.195 C 
ENDBRANCH  11  17
ENDBRANCH   4  10
BRANCH   6  19
ATOM     19  N   UNL     1      -2.647  -0.719  -1.328  1.00  0.00    -0.323 N 
ATOM     20  H   UNL     1      -2.486  -0.267  -2.219  1.00  0.00     0.170 HD
BRANCH  19  21
ATOM     21  C   UNL     1      -3.598  -1.674  -1.391  1.00  0.00     0.153 A 
ATOM     22  C   UNL     1      -3.958  -2.582  -0.368  1.00  0.00     0.071 A 
ATOM     23  N   UNL     1      -4.364  -1.840  -2.473  1.00  0.00    -0.158 NA
ATOM     24  C   UNL     1      -4.981  -3.343  -0.890  1.00  0.00     0.034 A 
ATOM     25  N   UNL     1      -5.180  -2.855  -2.150  1.00  0.00    -0.281 N 
ATOM     26  C   UNL     1      -5.769  -4.457  -0.321  1.00  0.00     0.066 C 
ATOM     27  H   UNL     1      -5.856  -3.163  -2.840  1.00  0.00     0.190 HD
ENDBRANCH  19  21
ENDBRANCH   6  19
ENDBRANCH   2   3
ENDBRANCH   1   2
BRANCH   1  28
ATOM     28  N   UNL     1       3.250  -1.094   0.058  1.00  0.00    -0.352 N 
ATOM     29  C   UNL     1       3.408  -2.458   0.240  1.00  0.00     0.271 C 
ATOM     30  H   UNL     1       2.757  -0.824  -0.791  1.00  0.00     0.163 HD
ATOM     31  O   UNL     1       3.774  -2.946   1.308  1.00  0.00    -0.270 OA
BRANCH  29  32
ATOM     32  C   UNL     1       3.099  -3.301  -1.019  1.00  0.00     0.347 C 
ATOM     33  F   UNL     1       2.631  -4.546  -0.720  1.00  0.00    -0.217 F 
BRANCH  32  34
ATOM     34  N   UNL     1       2.051  -2.643  -1.828  1.00  0.00    -0.163 NA
ATOM     35  H   UNL     1       1.197  -2.584  -1.262  1.00  0.00     0.159 HD
BRANCH  34  36
ATOM     36  O   UNL     1       1.647  -3.595  -2.864  1.00  0.00    -0.314 OA
ATOM     37  H   UNL     1       1.738  -4.478  -2.445  1.00  0.00     0.238 HD
ENDBRANCH  34  36
ENDBRANCH  32  34
ENDBRANCH  29  32
ENDBRANCH   1  28
TORSDOF 10
