MODEL        9USER    Run = 9USERUSER    Estimated Free Energy of Binding    = -14.03 kcal/mol  [=(1)+(2)+(3)-(4)]USERUSER    (1) Final Intermolecular Energy     = -16.41 kcal/molUSER        vdW + Hbond + desolv Energy     = -16.13 kcal/molUSER        Electrostatic Energy            =  -0.28 kcal/molUSER        Moving Ligand-Fixed Receptor    = -16.41 kcal/molUSER        Moving Ligand-Moving Receptor   =  +0.00 kcal/molUSER    (2) Final Total Internal Energy     =  -1.97 kcal/molUSER    (3) Torsional Free Energy           =  +2.39 kcal/molUSER    (4) Unbound System's Energy         =  -1.97 kcal/molUSERUSERREMARK SMILES Cc1cc(Nc2ccc3nc(-c4ccc(CN5CCC(n6c(O)nc7ccccc76)CC5)cc4)c(-c4ccncc4)nc3c2)n(C)n1REMARK SMILES IDX 12 1 13 2 14 3 15 4 33 5 34 6 11 7 6 8 7 9 44 10 8 11 43 12REMARK SMILES IDX 9 13 42 14 10 15 35 16 5 17 4 19 2 20 3 21 47 22 45 23 1 24REMARK SMILES IDX 46 25 36 26 37 27 41 28 38 29 40 30 39 31 16 32 17 33 18 34REMARK SMILES IDX 32 35 19 36 31 37 20 38 21 39 22 40 30 41 24 42 29 43 25 44REMARK SMILES IDX 28 45 26 46 27 47 23 48REMARK H PARENT 5 18 23 49USER                              x       y       z     vdW  Elec       q    TypeUSER                           _______ _______ _______ _____ _____    ______ ____ROOTATOM      1  C   UNL     1      32.159  45.245  15.436 -0.39 -0.00    +0.002 A  ATOM      2  C   UNL     1      31.599  43.969  15.611 -0.35 -0.01    +0.011 A  ATOM      3  C   UNL     1      30.221  43.772  15.489 -0.30 -0.00    +0.006 A  ATOM      4  C   UNL     1      29.371  44.839  15.164 -0.20 +0.02    -0.034 A  ATOM      5  C   UNL     1      29.930  46.112  14.986 -0.23 -0.00    +0.006 A  ATOM      6  C   UNL     1      31.306  46.313  15.120 -0.44 -0.01    +0.011 A  ENDROOTBRANCH   1   7ATOM      7  C   UNL     1      33.603  45.449  15.580 -0.22 -0.09    +0.097 A  ATOM      8  C   UNL     1      38.292  46.814  14.749 -0.41 -0.02    +0.042 A  ATOM      9  C   UNL     1      37.529  47.275  13.674 -0.51 -0.01    +0.028 A  ATOM     10  C   UNL     1      37.636  46.132  15.782 -0.34 -0.02    +0.056 A  ATOM     11  C   UNL     1      36.153  47.045  13.634 -0.51 -0.02    +0.033 A  ATOM     12  C   UNL     1      36.266  45.892  15.751 -0.30 -0.06    +0.092 A  ATOM     13  C   UNL     1      35.510  46.354  14.650 -0.32 -0.08    +0.090 A  ATOM     14  N   UNL     1      35.688  45.212  16.760 -0.16 +0.13    -0.244 NA ATOM     15  N   UNL     1      34.187  46.133  14.561 -0.19 +0.26    -0.244 NA ATOM     16  C   UNL     1      34.352  44.982  16.668 -0.25 -0.06    +0.097 A  BRANCH   8  17ATOM     17  N   UNL     1      39.691  47.028  14.716 -0.21 +0.07    -0.340 N  ATOM     18  H   UNL     1      39.952  47.402  13.803 +0.13 -0.02    +0.168 HD BRANCH  17  19ATOM     19  C   UNL     1      40.462  47.406  15.769 -0.40 -0.02    +0.128 A  ATOM     20  C   UNL     1      41.567  47.604  17.685 -0.38 -0.01    +0.062 A  ATOM     21  C   UNL     1      40.729  46.741  16.943 -0.40 -0.01    +0.072 A  ATOM     22  N   UNL     1      41.785  48.754  17.042 -0.82 -0.02    -0.177 NA ATOM     23  N   UNL     1      41.065  48.638  15.905 -0.38 +0.03    -0.252 N  ATOM     24  C   UNL     1      42.174  47.370  19.016 -0.53 +0.00    +0.069 C  ATOM     25  C   UNL     1      40.956  49.791  15.044 -0.52 -0.05    +0.176 C  ENDBRANCH  17  19ENDBRANCH   8  17BRANCH  16  26ATOM     26  C   UNL     1      33.791  44.181  17.760 -0.31 -0.00    +0.005 A  ATOM     27  C   UNL     1      33.159  44.791  18.851 -0.39 -0.01    +0.030 A  ATOM     28  C   UNL     1      33.877  42.781  17.741 -0.34 -0.01    +0.030 A  ATOM     29  C   UNL     1      32.626  43.987  19.847 -0.37 -0.00    +0.111 A  ATOM     30  C   UNL     1      33.317  42.064  18.787 -0.32 -0.01    +0.111 A  ATOM     31  N   UNL     1      32.686  42.636  19.834 -0.57 -0.04    -0.265 NA ENDBRANCH  16  26ENDBRANCH   1   7BRANCH   4  32ATOM     32  C   UNL     1      27.879  44.630  15.002 +0.16 -0.10    +0.120 C  BRANCH  32  33ATOM     33  N   UNL     1      27.264  43.578  15.822 -0.10 +0.14    -0.299 NA ATOM     34  C   UNL     1      27.462  43.731  17.259 -0.25 -0.01    +0.087 C  ATOM     35  C   UNL     1      25.872  43.286  15.464 -0.30 -0.03    +0.087 C  ATOM     36  C   UNL     1      27.211  42.395  17.968 -0.24 -0.01    +0.041 C  ATOM     37  C   UNL     1      25.129  42.474  16.530 -0.25 -0.00    +0.041 C  ATOM     38  C   UNL     1      26.098  41.572  17.295 -0.24 -0.01    +0.095 C  BRANCH  38  39ATOM     39  N   UNL     1      25.415  40.674  18.215 -0.11 +0.02    -0.291 N  ATOM     40  C   UNL     1      25.064  39.375  17.978 -0.16 -0.03    +0.295 A  ATOM     41  C   UNL     1      25.021  40.965  19.504 -0.27 -0.01    +0.072 A  ATOM     42  N   UNL     1      24.464  38.806  18.988 -0.27 +0.11    -0.195 NA ATOM     43  C   UNL     1      25.117  42.108  20.310 -0.45 -0.01    +0.029 A  ATOM     44  C   UNL     1      24.431  39.781  19.955 -0.28 -0.03    +0.092 A  ATOM     45  C   UNL     1      24.591  42.026  21.606 -0.61 -0.00    +0.002 A  ATOM     46  C   UNL     1      23.910  39.722  21.255 -0.35 -0.01    +0.031 A  ATOM     47  C   UNL     1      23.997  40.854  22.073 -0.52 -0.00    +0.002 A  BRANCH  40  48ATOM     48  O   UNL     1      25.290  38.729  16.853 -0.75 -0.11    -0.480 OA ATOM     49  H   UNL     1      24.399  38.382  16.655 -0.20 -0.13    +0.296 HD ENDBRANCH  40  48ENDBRANCH  38  39ENDBRANCH  32  33ENDBRANCH   4  32TORSDOF 8TERENDMDL