MODEL        2USER    Run = 2USERUSER    Estimated Free Energy of Binding    = -12.50 kcal/mol  [=(1)+(2)+(3)-(4)]USERUSER    (1) Final Intermolecular Energy     = -15.48 kcal/molUSER        vdW + Hbond + desolv Energy     = -14.76 kcal/molUSER        Electrostatic Energy            =  -0.72 kcal/molUSER        Moving Ligand-Fixed Receptor    = -15.48 kcal/molUSER        Moving Ligand-Moving Receptor   =  +0.00 kcal/molUSER    (2) Final Total Internal Energy     =  -1.98 kcal/molUSER    (3) Torsional Free Energy           =  +2.98 kcal/molUSER    (4) Unbound System's Energy         =  -1.98 kcal/molUSERUSERREMARK SMILES CN(C)CCn1cc(-c2nc3cc(O)ccc3nc2-c2ccc(CN3CCC(n4c(O)nc5ccccc54)CC3)cc2)cn1REMARK SMILES IDX 9 1 10 2 11 3 12 4 13 5 15 6 16 7 17 8 18 9 19 10 8 11 6 12REMARK SMILES IDX 7 13 44 14 43 15 5 16 4 17 2 18 1 19 3 20 20 21 21 22 42 23REMARK SMILES IDX 22 24 41 25 23 26 24 27 25 28 26 29 40 30 27 31 39 32 28 33REMARK SMILES IDX 29 34 30 35 38 36 32 37 37 38 33 39 36 40 34 41 35 42 31 43REMARK SMILES IDX 14 45REMARK H PARENT 31 44 14 46USER                              x       y       z     vdW  Elec       q    TypeUSER                           _______ _______ _______ _____ _____    ______ ____ROOTATOM      1  C   UNL     1      39.297  46.704  16.925 -0.38 -0.03    +0.100 A  ATOM      2  N   UNL     1      40.483  47.175  17.399 -0.33 +0.04    -0.244 NA ATOM      3  C   UNL     1      40.943  46.650  18.549 -0.43 -0.00    +0.093 A  ATOM      4  C   UNL     1      42.152  47.090  19.070 -0.47 +0.01    +0.076 A  ATOM      5  C   UNL     1      42.652  46.563  20.254 -0.30 +0.03    +0.117 A  ATOM      6  C   UNL     1      41.951  45.585  20.942 -0.30 +0.01    +0.048 A  ATOM      7  C   UNL     1      40.733  45.138  20.424 -0.35 +0.00    +0.034 A  ATOM      8  C   UNL     1      40.217  45.653  19.241 -0.38 -0.00    +0.090 A  ATOM      9  N   UNL     1      39.040  45.196  18.780 -0.26 +0.02    -0.244 NA ATOM     10  C   UNL     1      38.564  45.732  17.620 -0.34 -0.02    +0.097 A  ENDROOTBRANCH   1  11ATOM     11  C   UNL     1      38.901  47.273  15.646 -0.44 -0.01    +0.040 A  ATOM     12  N   UNL     1      37.631  47.974  13.992 -0.33 +0.13    -0.271 N  ATOM     13  C   UNL     1      37.593  47.368  15.213 -0.36 -0.07    +0.119 A  ATOM     14  N   UNL     1      38.878  48.285  13.591 -0.37 +0.04    -0.181 NA ATOM     15  C   UNL     1      39.645  47.874  14.606 -0.38 -0.04    +0.145 A  BRANCH  12  16ATOM     16  C   UNL     1      36.493  48.292  13.147 -0.46 -0.08    +0.159 C  BRANCH  16  17ATOM     17  C   UNL     1      35.621  47.056  12.899 -0.53 -0.07    +0.107 C  BRANCH  17  18ATOM     18  N   UNL     1      36.265  46.047  12.028 -0.38 +0.13    -0.308 NA ATOM     19  C   UNL     1      37.314  46.638  11.192 -0.42 -0.03    +0.105 C  ATOM     20  C   UNL     1      36.840  44.975  12.847 -0.47 -0.04    +0.105 C  ENDBRANCH  17  18ENDBRANCH  16  17ENDBRANCH  12  16ENDBRANCH   1  11BRANCH  10  21ATOM     21  C   UNL     1      37.242  45.218  17.231 -0.35 -0.00    +0.002 A  ATOM     22  C   UNL     1      36.092  45.611  17.936 -0.32 -0.00    +0.011 A  ATOM     23  C   UNL     1      37.082  44.342  16.144 -0.34 -0.00    +0.011 A  ATOM     24  C   UNL     1      34.831  45.116  17.590 -0.34 -0.00    +0.006 A  ATOM     25  C   UNL     1      35.822  43.844  15.797 -0.39 -0.00    +0.006 A  ATOM     26  C   UNL     1      34.685  44.224  16.520 -0.30 +0.02    -0.034 A  BRANCH  26  27ATOM     27  C   UNL     1      33.322  43.674  16.157 -0.31 -0.06    +0.120 C  BRANCH  27  28ATOM     28  N   UNL     1      32.203  44.502  16.639 -0.22 +0.12    -0.299 NA ATOM     29  C   UNL     1      31.281  43.739  17.484 -0.27 -0.02    +0.087 C  ATOM     30  C   UNL     1      31.557  45.258  15.555 -0.40 -0.05    +0.087 C  ATOM     31  C   UNL     1      30.122  43.092  16.729 -0.30 -0.01    +0.041 C  ATOM     32  C   UNL     1      30.059  45.464  15.771 -0.41 -0.01    +0.041 C  ATOM     33  C   UNL     1      29.374  44.095  15.830 -0.28 -0.05    +0.095 C  BRANCH  33  34ATOM     34  N   UNL     1      27.945  44.185  16.107 -0.13 +0.11    -0.291 N  ATOM     35  C   UNL     1      27.004  44.736  15.267 +0.01 -0.12    +0.295 A  ATOM     36  C   UNL     1      27.264  43.656  17.185 -0.22 -0.01    +0.072 A  ATOM     37  N   UNL     1      25.783  44.508  15.671 -0.26 +0.01    -0.195 NA ATOM     38  C   UNL     1      27.655  43.022  18.372 -0.11 -0.00    +0.029 A  ATOM     39  C   UNL     1      25.919  43.851  16.864 -0.30 -0.01    +0.092 A  ATOM     40  C   UNL     1      26.645  42.574  19.232 -0.25 -0.00    +0.002 A  ATOM     41  C   UNL     1      24.920  43.390  17.736 -0.31 -0.00    +0.031 A  ATOM     42  C   UNL     1      25.298  42.751  18.920 -0.40 -0.00    +0.002 A  BRANCH  35  43ATOM     43  O   UNL     1      27.262  45.416  14.160 +0.09 +0.39    -0.480 OA ATOM     44  H   UNL     1      27.496  44.778  13.471 -0.32 -0.74    +0.296 HD ENDBRANCH  35  43ENDBRANCH  33  34ENDBRANCH  27  28ENDBRANCH  26  27ENDBRANCH  10  21BRANCH   5  45ATOM     45  O   UNL     1      43.843  47.040  20.711 -0.28 -0.29    -0.508 OA ATOM     46  H   UNL     1      43.848  48.009  20.642 -0.39 -0.01    +0.293 HD ENDBRANCH   5  45TORSDOF 10TERENDMDL