REMARK SMILES Cc1cc(Nc2ccc3nc(-c4ccc(CN5CCC(n6c(O)nc7ccccc76)CC5)cc4)c(-c4ccncc4)nc3c2)n(C)n1
REMARK SMILES IDX 12 1 13 2 14 3 15 4 33 5 34 6 11 7 6 8 7 9 44 10 8 11 43 12
REMARK SMILES IDX 9 13 42 14 10 15 35 16 5 17 4 19 2 20 3 21 47 22 45 23 1 24
REMARK SMILES IDX 46 25 36 26 37 27 41 28 38 29 40 30 39 31 16 32 17 33 18 34
REMARK SMILES IDX 32 35 19 36 31 37 20 38 21 39 22 40 30 41 24 42 29 43 25 44
REMARK SMILES IDX 28 45 26 46 27 47 23 48
REMARK H PARENT 5 18 23 49
ROOT
ATOM      1  C   UNL     1      -0.632  -1.134   0.121  1.00  0.00     0.002 A 
ATOM      2  C   UNL     1       0.013  -0.965   1.357  1.00  0.00     0.011 A 
ATOM      3  C   UNL     1       1.324  -1.412   1.545  1.00  0.00     0.006 A 
ATOM      4  C   UNL     1       2.032  -2.015   0.496  1.00  0.00    -0.034 A 
ATOM      5  C   UNL     1       1.390  -2.181  -0.739  1.00  0.00     0.006 A 
ATOM      6  C   UNL     1       0.075  -1.746  -0.925  1.00  0.00     0.011 A 
ENDROOT
BRANCH   1   7
ATOM      7  C   UNL     1      -2.012  -0.677  -0.066  1.00  0.00     0.097 A 
ATOM      8  C   UNL     1      -6.011   2.200  -0.588  1.00  0.00     0.042 A 
ATOM      9  C   UNL     1      -4.907   3.044  -0.447  1.00  0.00     0.028 A 
ATOM     10  C   UNL     1      -5.790   0.816  -0.579  1.00  0.00     0.056 A 
ATOM     11  C   UNL     1      -3.626   2.513  -0.290  1.00  0.00     0.033 A 
ATOM     12  C   UNL     1      -4.519   0.275  -0.418  1.00  0.00     0.092 A 
ATOM     13  C   UNL     1      -3.415   1.143  -0.264  1.00  0.00     0.090 A 
ATOM     14  N   UNL     1      -4.365  -1.063  -0.395  1.00  0.00    -0.244 NA
ATOM     15  N   UNL     1      -2.168   0.673  -0.086  1.00  0.00    -0.244 NA
ATOM     16  C   UNL     1      -3.106  -1.540  -0.209  1.00  0.00     0.097 A 
BRANCH   8  17
ATOM     17  N   UNL     1      -7.294   2.788  -0.692  1.00  0.00    -0.340 N 
ATOM     18  H   UNL     1      -7.272   3.517  -1.406  1.00  0.00     0.168 HD
BRANCH  17  19
ATOM     19  C   UNL     1      -8.479   2.146  -0.518  1.00  0.00     0.128 A 
ATOM     20  C   UNL     1     -10.542   1.333  -0.644  1.00  0.00     0.062 A 
ATOM     21  C   UNL     1      -9.602   2.149  -1.313  1.00  0.00     0.072 A 
ATOM     22  N   UNL     1     -10.062   0.875   0.515  1.00  0.00    -0.177 NA
ATOM     23  N   UNL     1      -8.829   1.421   0.600  1.00  0.00    -0.252 N 
ATOM     24  C   UNL     1     -11.912   0.972  -1.076  1.00  0.00     0.069 C 
ATOM     25  C   UNL     1      -8.089   1.250   1.827  1.00  0.00     0.176 C 
ENDBRANCH  17  19
ENDBRANCH   8  17
BRANCH  16  26
ATOM     26  C   UNL     1      -3.010  -3.000  -0.126  1.00  0.00     0.005 A 
ATOM     27  C   UNL     1      -3.169  -3.799  -1.265  1.00  0.00     0.030 A 
ATOM     28  C   UNL     1      -2.758  -3.635   1.099  1.00  0.00     0.030 A 
ATOM     29  C   UNL     1      -3.047  -5.174  -1.137  1.00  0.00     0.111 A 
ATOM     30  C   UNL     1      -2.657  -5.017   1.126  1.00  0.00     0.111 A 
ATOM     31  N   UNL     1      -2.788  -5.799   0.034  1.00  0.00    -0.265 NA
ENDBRANCH  16  26
ENDBRANCH   1   7
BRANCH   4  32
ATOM     32  C   UNL     1       3.463  -2.478   0.681  1.00  0.00     0.120 C 
BRANCH  32  33
ATOM     33  N   UNL     1       4.518  -1.492   0.412  1.00  0.00    -0.299 NA
ATOM     34  C   UNL     1       4.492  -0.922  -0.930  1.00  0.00     0.087 C 
ATOM     35  C   UNL     1       4.661  -0.477   1.462  1.00  0.00     0.087 C 
ATOM     36  C   UNL     1       5.851  -0.294  -1.260  1.00  0.00     0.041 C 
ATOM     37  C   UNL     1       5.485   0.738   1.023  1.00  0.00     0.041 C 
ATOM     38  C   UNL     1       6.522   0.337  -0.027  1.00  0.00     0.095 C 
BRANCH  38  39
ATOM     39  N   UNL     1       7.425   1.428  -0.363  1.00  0.00    -0.291 N 
ATOM     40  C   UNL     1       7.090   2.611  -0.960  1.00  0.00     0.295 A 
ATOM     41  C   UNL     1       8.781   1.476  -0.116  1.00  0.00     0.072 A 
ATOM     42  N   UNL     1       8.106   3.410  -1.137  1.00  0.00    -0.195 NA
ATOM     43  C   UNL     1       9.688   0.587   0.477  1.00  0.00     0.029 A 
ATOM     44  C   UNL     1       9.173   2.722  -0.612  1.00  0.00     0.092 A 
ATOM     45  C   UNL     1      11.026   0.993   0.558  1.00  0.00     0.002 A 
ATOM     46  C   UNL     1      10.518   3.108  -0.523  1.00  0.00     0.031 A 
ATOM     47  C   UNL     1      11.437   2.232   0.067  1.00  0.00     0.002 A 
BRANCH  40  48
ATOM     48  O   UNL     1       5.872   2.944  -1.335  1.00  0.00    -0.480 OA
ATOM     49  H   UNL     1       6.029   3.831  -1.712  1.00  0.00     0.296 HD
ENDBRANCH  40  48
ENDBRANCH  38  39
ENDBRANCH  32  33
ENDBRANCH   4  32
TORSDOF 8
