REMARK SMILES CN(C)CCn1cc(-c2nc3cc(O)ccc3nc2-c2ccc(CN3CCC(n4c(O)nc5ccccc54)CC3)cc2)cn1
REMARK SMILES IDX 9 1 10 2 11 3 12 4 13 5 15 6 16 7 17 8 18 9 19 10 8 11 6 12
REMARK SMILES IDX 7 13 44 14 43 15 5 16 4 17 2 18 1 19 3 20 20 21 21 22 42 23
REMARK SMILES IDX 22 24 41 25 23 26 24 27 25 28 26 29 40 30 27 31 39 32 28 33
REMARK SMILES IDX 29 34 30 35 38 36 32 37 37 38 33 39 36 40 34 41 35 42 31 43
REMARK SMILES IDX 14 45
REMARK H PARENT 31 44 14 46
ROOT
ATOM      1  C   UNL     1      -3.699   1.680  -0.200  1.00  0.00     0.100 A 
ATOM      2  N   UNL     1      -4.738   2.551  -0.071  1.00  0.00    -0.244 NA
ATOM      3  C   UNL     1      -4.464   3.863  -0.189  1.00  0.00     0.093 A 
ATOM      4  C   UNL     1      -5.490   4.791  -0.075  1.00  0.00     0.076 A 
ATOM      5  C   UNL     1      -5.237   6.152  -0.195  1.00  0.00     0.117 A 
ATOM      6  C   UNL     1      -3.951   6.612  -0.432  1.00  0.00     0.048 A 
ATOM      7  C   UNL     1      -2.914   5.683  -0.547  1.00  0.00     0.034 A 
ATOM      8  C   UNL     1      -3.147   4.318  -0.430  1.00  0.00     0.090 A 
ATOM      9  N   UNL     1      -2.119   3.460  -0.545  1.00  0.00    -0.244 NA
ATOM     10  C   UNL     1      -2.389   2.129  -0.416  1.00  0.00     0.097 A 
ENDROOT
BRANCH   1  11
ATOM     11  C   UNL     1      -4.086   0.280  -0.126  1.00  0.00     0.040 A 
ATOM     12  N   UNL     1      -5.184  -1.541   0.439  1.00  0.00    -0.271 N 
ATOM     13  C   UNL     1      -5.117  -0.197   0.660  1.00  0.00     0.119 A 
ATOM     14  N   UNL     1      -4.265  -1.982  -0.441  1.00  0.00    -0.181 NA
ATOM     15  C   UNL     1      -3.613  -0.870  -0.796  1.00  0.00     0.145 A 
BRANCH  12  16
ATOM     16  C   UNL     1      -6.119  -2.473   1.045  1.00  0.00     0.159 C 
BRANCH  16  17
ATOM     17  C   UNL     1      -7.321  -2.731   0.129  1.00  0.00     0.107 C 
BRANCH  17  18
ATOM     18  N   UNL     1      -8.318  -3.656   0.714  1.00  0.00    -0.308 NA
ATOM     19  C   UNL     1      -9.077  -3.025   1.798  1.00  0.00     0.105 C 
ATOM     20  C   UNL     1      -9.244  -4.115  -0.327  1.00  0.00     0.105 C 
ENDBRANCH  17  18
ENDBRANCH  16  17
ENDBRANCH  12  16
ENDBRANCH   1  11
BRANCH  10  21
ATOM     21  C   UNL     1      -1.194   1.275  -0.491  1.00  0.00     0.002 A 
ATOM     22  C   UNL     1      -0.363   1.314  -1.623  1.00  0.00     0.011 A 
ATOM     23  C   UNL     1      -0.836   0.414   0.560  1.00  0.00     0.011 A 
ATOM     24  C   UNL     1       0.766   0.495  -1.717  1.00  0.00     0.006 A 
ATOM     25  C   UNL     1       0.291  -0.408   0.468  1.00  0.00     0.006 A 
ATOM     26  C   UNL     1       1.101  -0.378  -0.674  1.00  0.00    -0.034 A 
BRANCH  26  27
ATOM     27  C   UNL     1       2.313  -1.279  -0.783  1.00  0.00     0.120 C 
BRANCH  27  28
ATOM     28  N   UNL     1       3.581  -0.547  -0.942  1.00  0.00    -0.299 NA
ATOM     29  C   UNL     1       4.686  -1.437  -1.306  1.00  0.00     0.087 C 
ATOM     30  C   UNL     1       3.861   0.344   0.194  1.00  0.00     0.087 C 
ATOM     31  C   UNL     1       5.468  -1.990  -0.117  1.00  0.00     0.041 C 
ATOM     32  C   UNL     1       5.352   0.492   0.493  1.00  0.00     0.041 C 
ATOM     33  C   UNL     1       5.924  -0.883   0.852  1.00  0.00     0.095 C 
BRANCH  33  34
ATOM     34  N   UNL     1       7.363  -0.858   1.085  1.00  0.00    -0.291 N 
ATOM     35  C   UNL     1       7.979  -1.100   2.293  1.00  0.00     0.295 A 
ATOM     36  C   UNL     1       8.363  -0.697   0.147  1.00  0.00     0.072 A 
ATOM     37  N   UNL     1       9.275  -1.208   2.176  1.00  0.00    -0.195 NA
ATOM     38  C   UNL     1       8.379  -0.386  -1.219  1.00  0.00     0.029 A 
ATOM     39  C   UNL     1       9.538  -0.950   0.858  1.00  0.00     0.092 A 
ATOM     40  C   UNL     1       9.623  -0.348  -1.861  1.00  0.00     0.002 A 
ATOM     41  C   UNL     1      10.775  -0.913   0.196  1.00  0.00     0.031 A 
ATOM     42  C   UNL     1      10.804  -0.610  -1.168  1.00  0.00     0.002 A 
BRANCH  35  43
ATOM     43  O   UNL     1       7.365  -1.227   3.460  1.00  0.00    -0.480 OA
ATOM     44  H   UNL     1       6.642  -0.584   3.483  1.00  0.00     0.296 HD
ENDBRANCH  35  43
ENDBRANCH  33  34
ENDBRANCH  27  28
ENDBRANCH  26  27
ENDBRANCH  10  21
BRANCH   5  45
ATOM     45  O   UNL     1      -6.288   7.009  -0.071  1.00  0.00    -0.508 OA
ATOM     46  H   UNL     1      -5.971   7.922  -0.171  1.00  0.00     0.293 HD
ENDBRANCH   5  45
TORSDOF 10
