MODEL        1USER    Run = 1USERUSER    Estimated Free Energy of Binding    =  -8.68 kcal/mol  [=(1)+(2)+(3)-(4)]USERUSER    (1) Final Intermolecular Energy     = -11.66 kcal/molUSER        vdW + Hbond + desolv Energy     = -11.59 kcal/molUSER        Electrostatic Energy            =  -0.07 kcal/molUSER        Moving Ligand-Fixed Receptor    = -11.66 kcal/molUSER        Moving Ligand-Moving Receptor   =  +0.00 kcal/molUSER    (2) Final Total Internal Energy     =  -2.75 kcal/molUSER    (3) Torsional Free Energy           =  +2.98 kcal/molUSER    (4) Unbound System's Energy         =  -2.75 kcal/molUSERUSERREMARK SMILES CO[C@H]1CN(c2cc(Nc3cc(C)[nH]n3)nc(C)c2CCNC(=O)[C@@H](F)NO)CC[C@H]1FREMARK SMILES IDX 21 1 20 2 19 3 6 4 7 5 8 6 17 7 16 8 18 9 5 10 3 11 4 12REMARK SMILES IDX 31 13 30 14 29 15 32 16 2 17 1 18 9 19 10 21 11 22 15 23REMARK SMILES IDX 12 24 14 25 13 26 22 28 23 29 24 31 25 32 26 33 27 34 28 36REMARK H PARENT 9 20 14 27 22 30 27 35 28 37USER                              x       y       z     vdW  Elec       q    TypeUSER                           _______ _______ _______ _____ _____    ______ ____ROOTATOM      1  C   UNL     1      38.443  45.755  19.163 -0.09 -0.01    +0.121 C  ENDROOTBRANCH   1   2ATOM      2  C   UNL     1      39.425  45.394  18.035 -0.44 -0.01    +0.061 C  BRANCH   2   3ATOM      3  C   UNL     1      39.994  46.601  17.306 -0.48 +0.00    -0.001 A  ATOM      4  C   UNL     1      39.354  47.131  16.166 -0.44 -0.01    +0.046 A  ATOM      5  C   UNL     1      39.852  48.322  15.626 -0.50 -0.02    +0.073 A  ATOM      6  C   UNL     1      40.944  48.967  16.199 -0.46 -0.02    +0.133 A  ATOM      7  C   UNL     1      41.124  47.274  17.793 -0.49 -0.00    +0.045 A  ATOM      8  N   UNL     1      41.576  48.434  17.258 -0.71 +0.00    -0.236 NA ATOM      9  C   UNL     1      41.934  46.775  18.956 -0.53 +0.00    +0.067 C  BRANCH   4  10ATOM     10  N   UNL     1      38.274  46.465  15.581 -0.13 +0.14    -0.368 N  ATOM     11  C   UNL     1      35.951  46.990  14.753 -0.27 -0.15    +0.171 C  ATOM     12  C   UNL     1      36.889  46.823  15.968 -0.34 -0.11    +0.151 C  ATOM     13  C   UNL     1      36.730  47.751  13.679 -0.47 -0.11    +0.199 C  ATOM     14  C   UNL     1      37.943  46.984  13.174 -0.48 -0.02    +0.062 C  ATOM     15  C   UNL     1      38.487  45.997  14.203 -0.37 -0.03    +0.120 C  ATOM     16  F   UNL     1      35.921  48.052  12.625 -0.19 +0.13    -0.244 F  BRANCH  11  17ATOM     17  O   UNL     1      35.526  45.679  14.332 -0.19 +0.24    -0.377 OA ATOM     18  C   UNL     1      35.247  44.795  15.410 -0.25 -0.11    +0.195 C  ENDBRANCH  11  17ENDBRANCH   4  10BRANCH   6  19ATOM     19  N   UNL     1      41.404  50.153  15.595 -0.41 +0.06    -0.323 N  ATOM     20  H   UNL     1      41.601  50.872  16.279 -0.41 -0.05    +0.170 HD BRANCH  19  21ATOM     21  C   UNL     1      42.086  50.328  14.443 -0.52 -0.03    +0.153 A  ATOM     22  C   UNL     1      42.944  51.404  14.120 -0.19 -0.02    +0.071 A  ATOM     23  N   UNL     1      42.046  49.430  13.454 -0.44 +0.02    -0.158 NA ATOM     24  C   UNL     1      43.418  51.135  12.855 -0.44 -0.02    +0.034 A  ATOM     25  N   UNL     1      42.847  49.943  12.508 -0.44 +0.10    -0.281 N  ATOM     26  C   UNL     1      44.338  51.878  11.969 -0.46 -0.03    +0.066 C  ATOM     27  H   UNL     1      42.963  49.423  11.646 -0.36 -0.08    +0.190 HD ENDBRANCH  19  21ENDBRANCH   6  19ENDBRANCH   2   3ENDBRANCH   1   2BRANCH   1  28ATOM     28  N   UNL     1      37.672  44.622  19.639 -0.15 +0.03    -0.352 N  ATOM     29  C   UNL     1      36.384  44.367  19.199 -0.24 -0.04    +0.271 C  ATOM     30  H   UNL     1      38.188  43.808  19.967 +0.10 -0.01    +0.163 HD ATOM     31  O   UNL     1      35.723  45.192  18.570 -0.25 +0.08    -0.270 OA BRANCH  29  32ATOM     32  C   UNL     1      35.854  42.966  19.583 -0.22 -0.03    +0.347 C  ATOM     33  F   UNL     1      35.464  42.233  18.501 -0.09 +0.04    -0.217 F  BRANCH  32  34ATOM     34  N   UNL     1      36.915  42.186  20.255 -0.25 +0.01    -0.163 NA ATOM     35  H   UNL     1      36.528  41.272  20.513 +0.09 -0.01    +0.159 HD BRANCH  34  36ATOM     36  O   UNL     1      37.126  42.793  21.571 -0.25 -0.01    -0.314 OA ATOM     37  H   UNL     1      38.047  42.556  21.814 +0.16 +0.01    +0.238 HD ENDBRANCH  34  36ENDBRANCH  32  34ENDBRANCH  29  32ENDBRANCH   1  28TORSDOF 10TERENDMDL