MODEL        9USER    Run = 9USERUSER    Estimated Free Energy of Binding    = -11.21 kcal/mol  [=(1)+(2)+(3)-(4)]USERUSER    (1) Final Intermolecular Energy     = -13.00 kcal/molUSER        vdW + Hbond + desolv Energy     = -12.61 kcal/molUSER        Electrostatic Energy            =  -0.39 kcal/molUSER        Moving Ligand-Fixed Receptor    = -13.00 kcal/molUSER        Moving Ligand-Moving Receptor   =  +0.00 kcal/molUSER    (2) Final Total Internal Energy     =  -1.40 kcal/molUSER    (3) Torsional Free Energy           =  +1.79 kcal/molUSER    (4) Unbound System's Energy         =  -1.40 kcal/molUSERUSERREMARK SMILES Oc1nc2ccccc2n1C1CCN(Cc2ccc(-c3nc4ccc(F)cc4nc3N3CCOCC3)cc2)CC1REMARK SMILES IDX 11 1 12 2 13 3 14 4 39 5 40 6 10 7 2 8 3 9 4 10 9 11 5 12REMARK SMILES IDX 8 13 6 14 7 15 1 16 15 18 16 19 17 20 38 21 18 22 37 23REMARK SMILES IDX 19 24 20 25 21 26 30 27 22 28 29 29 23 30 28 31 24 32 27 33REMARK SMILES IDX 25 34 26 35 31 36 32 37 36 38 33 39 35 40 34 41REMARK H PARENT 1 17USER                              x       y       z     vdW  Elec       q    TypeUSER                           _______ _______ _______ _____ _____    ______ ____ROOTATOM      1  C   UNL     1      26.435  41.242  17.401 -0.23 -0.01    +0.095 C  ATOM      2  C   UNL     1      25.631  42.259  16.571 -0.31 -0.00    +0.041 C  ATOM      3  C   UNL     1      26.007  43.700  16.918 -0.34 -0.01    +0.087 C  ATOM      4  N   UNL     1      27.448  43.968  16.858 -0.10 +0.05    -0.299 NA ATOM      5  C   UNL     1      28.272  42.930  17.497 -0.20 -0.01    +0.087 C  ATOM      6  C   UNL     1      27.472  41.914  18.312 -0.17 -0.00    +0.041 C  ENDROOTBRANCH   1   7ATOM      7  N   UNL     1      25.597  40.301  18.130 -0.12 +0.02    -0.291 N  ATOM      8  C   UNL     1      25.094  39.123  17.654 -0.19 -0.02    +0.295 A  ATOM      9  N   UNL     1      24.363  38.485  18.525 -0.34 +0.12    -0.195 NA ATOM     10  C   UNL     1      24.373  39.294  19.637 -0.28 -0.05    +0.092 A  ATOM     11  C   UNL     1      25.144  40.439  19.423 -0.25 -0.01    +0.072 A  ATOM     12  C   UNL     1      23.732  39.114  20.873 -0.29 -0.02    +0.031 A  ATOM     13  C   UNL     1      25.311  41.425  20.405 -0.40 -0.01    +0.029 A  ATOM     14  C   UNL     1      23.883  40.093  21.863 -0.41 -0.00    +0.002 A  ATOM     15  C   UNL     1      24.662  41.229  21.632 -0.54 -0.00    +0.002 A  BRANCH   8  16ATOM     16  O   UNL     1      25.284  38.667  16.435 -0.71 -0.13    -0.480 OA ATOM     17  H   UNL     1      24.398  38.321  16.218 -0.24 -0.19    +0.296 HD ENDBRANCH   8  16ENDBRANCH   1   7BRANCH   4  18ATOM     18  C   UNL     1      27.942  44.270  15.507 -0.19 -0.08    +0.120 C  BRANCH  18  19ATOM     19  C   UNL     1      29.432  44.521  15.442 -0.26 +0.02    -0.034 A  ATOM     20  C   UNL     1      30.332  43.459  15.316 -0.28 -0.00    +0.006 A  ATOM     21  C   UNL     1      29.940  45.822  15.526 -0.35 -0.00    +0.006 A  ATOM     22  C   UNL     1      31.709  43.697  15.281 -0.36 -0.01    +0.011 A  ATOM     23  C   UNL     1      31.319  46.053  15.507 -0.41 -0.01    +0.011 A  ATOM     24  C   UNL     1      32.239  44.998  15.376 -0.38 -0.00    +0.004 A  BRANCH  24  25ATOM     25  C   UNL     1      33.708  45.209  15.403 -0.23 -0.09    +0.113 A  ATOM     26  N   UNL     1      34.138  46.110  14.467 -0.19 +0.25    -0.242 NA ATOM     27  C   UNL     1      34.622  44.537  16.250 -0.21 -0.08    +0.156 A  ATOM     28  C   UNL     1      35.457  46.299  14.344 -0.36 -0.07    +0.090 A  ATOM     29  N   UNL     1      35.957  44.736  16.098 -0.18 +0.11    -0.227 NA ATOM     30  C   UNL     1      35.931  47.193  13.391 -0.51 -0.02    +0.033 A  ATOM     31  C   UNL     1      36.374  45.600  15.159 -0.30 -0.05    +0.094 A  ATOM     32  C   UNL     1      37.298  47.408  13.225 -0.55 -0.01    +0.041 A  ATOM     33  C   UNL     1      37.732  45.816  14.986 -0.33 -0.03    +0.070 A  ATOM     34  C   UNL     1      38.187  46.712  14.026 -0.36 -0.04    +0.125 A  ATOM     35  F   UNL     1      39.504  46.908  13.876 -0.07 +0.03    -0.207 F  BRANCH  27  36ATOM     36  N   UNL     1      34.212  43.672  17.276 -0.07 +0.13    -0.350 N  ATOM     37  C   UNL     1      33.158  44.240  18.155 -0.30 -0.04    +0.146 C  ATOM     38  C   UNL     1      35.307  43.007  18.009 -0.32 -0.04    +0.146 C  ATOM     39  C   UNL     1      33.659  44.372  19.607 -0.29 -0.04    +0.181 C  ATOM     40  C   UNL     1      34.720  42.256  19.214 -0.33 -0.02    +0.181 C  ATOM     41  O   UNL     1      34.099  43.127  20.175 -0.65 -0.04    -0.378 OA ENDBRANCH  27  36ENDBRANCH  24  25ENDBRANCH  18  19ENDBRANCH   4  18TORSDOF 6TERENDMDL