REMARK SMILES COc1cccc(Nc2cn(-c3ccc(C(=O)O)c(C)c3)nn2)c1
REMARK SMILES IDX 9 1 10 2 11 3 22 4 23 5 8 6 7 8 3 9 4 10 24 11 5 12 6 13
REMARK SMILES IDX 2 14 1 15 12 16 13 17 21 18 14 19 19 20 15 21 20 22 16 23
REMARK SMILES IDX 17 24 18 25
REMARK H PARENT 8 7 18 26
ROOT
ATOM      1  C   UNL     1       0.982  -0.158  -0.158  1.00  0.00     0.173 A 
ATOM      2  C   UNL     1      -0.086   0.648   0.146  1.00  0.00     0.164 A 
ATOM      3  N   UNL     1      -1.193  -0.136  -0.088  1.00  0.00    -0.219 N 
ATOM      4  N   UNL     1      -0.796  -1.359  -0.514  1.00  0.00    -0.060 NA
ATOM      5  N   UNL     1       0.529  -1.375  -0.558  1.00  0.00    -0.112 NA
ENDROOT
BRANCH   1   6
ATOM      6  N   UNL     1       2.274   0.224  -0.067  1.00  0.00    -0.337 N 
ATOM      7  H   UNL     1       2.453   1.171   0.249  1.00  0.00     0.168 HD
BRANCH   6   8
ATOM      8  C   UNL     1       3.477  -0.471  -0.336  1.00  0.00     0.043 A 
ATOM      9  C   UNL     1       5.926  -0.421  -0.393  1.00  0.00     0.120 A 
ATOM     10  C   UNL     1       5.939  -1.742  -0.838  1.00  0.00     0.046 A 
ATOM     11  C   UNL     1       4.700   0.205  -0.146  1.00  0.00     0.072 A 
ATOM     12  C   UNL     1       4.744  -2.428  -1.033  1.00  0.00     0.006 A 
ATOM     13  C   UNL     1       3.524  -1.795  -0.783  1.00  0.00     0.026 A 
BRANCH   9  14
ATOM     14  O   UNL     1       7.165   0.140  -0.242  1.00  0.00    -0.497 OA
ATOM     15  C   UNL     1       7.215   1.487   0.210  1.00  0.00     0.278 C 
ENDBRANCH   9  14
ENDBRANCH   6   8
ENDBRANCH   1   6
BRANCH   3  16
ATOM     16  C   UNL     1      -2.566   0.194   0.064  1.00  0.00     0.067 A 
ATOM     17  C   UNL     1      -2.961   1.459   0.504  1.00  0.00     0.029 A 
ATOM     18  C   UNL     1      -3.547  -0.766  -0.233  1.00  0.00     0.032 A 
ATOM     19  C   UNL     1      -4.322   1.755   0.644  1.00  0.00     0.018 A 
ATOM     20  C   UNL     1      -4.921  -0.479  -0.096  1.00  0.00    -0.034 A 
ATOM     21  C   UNL     1      -5.312   0.801   0.349  1.00  0.00     0.062 A 
ATOM     22  C   UNL     1      -5.912  -1.561  -0.434  1.00  0.00     0.045 C 
BRANCH  21  23
ATOM     23  C   UNL     1      -6.754   1.163   0.513  1.00  0.00     0.335 C 
ATOM     24  O   UNL     1      -7.723   0.462   0.293  1.00  0.00    -0.246 OA
BRANCH  23  25
ATOM     25  O   UNL     1      -6.923   2.422   0.960  1.00  0.00    -0.478 OA
ATOM     26  H   UNL     1      -7.897   2.515   1.018  1.00  0.00     0.297 HD
ENDBRANCH  23  25
ENDBRANCH  21  23
ENDBRANCH   3  16
TORSDOF 6
