MODEL        9USER    Run = 9USERUSER    Estimated Free Energy of Binding    =  -8.77 kcal/mol  [=(1)+(2)+(3)-(4)]USERUSER    (1) Final Intermolecular Energy     = -10.26 kcal/molUSER        vdW + Hbond + desolv Energy     =  -9.96 kcal/molUSER        Electrostatic Energy            =  -0.30 kcal/molUSER        Moving Ligand-Fixed Receptor    = -10.26 kcal/molUSER        Moving Ligand-Moving Receptor   =  +0.00 kcal/molUSER    (2) Final Total Internal Energy     =  -0.62 kcal/molUSER    (3) Torsional Free Energy           =  +1.49 kcal/molUSER    (4) Unbound System's Energy         =  -0.62 kcal/molUSERUSERREMARK SMILES Cc1cc(-n2cc(Nc3ccccc3F)nn2)ccc1C(=O)OREMARK SMILES IDX 1 1 2 2 3 3 4 4 18 5 19 6 20 7 21 8 22 9 23 10 5 12 6 13REMARK SMILES IDX 17 14 7 15 16 16 8 17 9 19 10 20 14 21 11 22 13 23 12 24REMARK SMILES IDX 15 25REMARK H PARENT 23 11 8 18USER                              x       y       z     vdW  Elec       q    TypeUSER                           _______ _______ _______ _____ _____    ______ ____ROOTATOM      1  C   UNL     1      40.728  44.684  20.849 -0.36 +0.00    +0.045 C  ATOM      2  C   UNL     1      41.435  45.796  20.123 -0.37 -0.00    -0.034 A  ATOM      3  C   UNL     1      40.828  46.332  18.968 -0.44 -0.00    +0.032 A  ATOM      4  C   UNL     1      41.425  47.386  18.258 -0.47 -0.00    +0.067 A  ATOM      5  C   UNL     1      42.645  47.909  18.702 -0.42 +0.00    +0.029 A  ATOM      6  C   UNL     1      43.263  47.376  19.836 -0.39 +0.00    +0.018 A  ATOM      7  C   UNL     1      42.677  46.313  20.540 -0.28 +0.02    +0.062 A  ENDROOTBRANCH   7   8ATOM      8  C   UNL     1      43.438  45.822  21.718 -0.10 +0.15    +0.335 C  ATOM      9  O   UNL     1      42.971  45.188  22.647 -0.12 -0.05    -0.246 OA BRANCH   8  10ATOM     10  O   UNL     1      44.720  46.218  21.722 -0.51 -0.51    -0.478 OA ATOM     11  H   UNL     1      44.874  46.503  22.647 +0.10 +0.18    +0.297 HD ENDBRANCH   8  10ENDBRANCH   7   8BRANCH   4  12ATOM     12  N   UNL     1      40.811  47.929  17.098 -0.39 +0.03    -0.219 N  ATOM     13  C   UNL     1      39.588  47.631  16.548 -0.35 -0.05    +0.164 A  ATOM     14  N   UNL     1      41.417  48.890  16.355 -1.11 -0.00    -0.060 NA ATOM     15  C   UNL     1      39.509  48.414  15.427 -0.40 -0.07    +0.173 A  ATOM     16  N   UNL     1      40.620  49.196  15.340 -0.56 +0.03    -0.112 NA BRANCH  15  17ATOM     17  N   UNL     1      38.513  48.546  14.533 -0.26 +0.17    -0.335 N  ATOM     18  H   UNL     1      38.324  49.502  14.246 -0.41 -0.14    +0.168 HD BRANCH  17  19ATOM     19  C   UNL     1      37.766  47.610  13.785 -0.47 -0.03    +0.076 A  ATOM     20  C   UNL     1      36.669  48.091  13.047 -0.59 -0.01    +0.029 A  ATOM     21  C   UNL     1      37.987  46.225  13.775 -0.31 -0.05    +0.146 A  ATOM     22  C   UNL     1      35.842  47.225  12.321 -0.62 -0.00    +0.002 A  ATOM     23  C   UNL     1      37.166  45.356  13.052 -0.45 -0.01    +0.041 A  ATOM     24  C   UNL     1      36.090  45.856  12.324 -0.56 -0.00    +0.003 A  ATOM     25  F   UNL     1      39.034  45.684  14.416 -0.11 +0.04    -0.205 F  ENDBRANCH  17  19ENDBRANCH  15  17ENDBRANCH   4  12TORSDOF 5TERENDMDL