REMARK SMILES Cc1cc(-n2cc(Nc3ccccc3Cl)nn2)ccc1-n1cnnn1
REMARK SMILES IDX 5 1 6 2 7 3 16 4 17 5 4 6 2 7 3 8 20 9 19 10 18 11 1 12
REMARK SMILES IDX 21 13 22 14 25 15 23 16 24 17 8 18 9 20 10 21 14 22 11 23
REMARK SMILES IDX 13 24 12 25 15 26
REMARK H PARENT 8 19
ROOT
ATOM      1  N   UNL     1      -0.022   0.015   0.060  1.00  0.00    -0.219 N 
ATOM      2  C   UNL     1      -1.035   0.925   0.251  1.00  0.00     0.164 A 
ATOM      3  C   UNL     1      -2.187   0.221   0.009  1.00  0.00     0.173 A 
ATOM      4  N   UNL     1      -1.873  -1.062  -0.314  1.00  0.00    -0.112 NA
ATOM      5  N   UNL     1      -0.553  -1.185  -0.282  1.00  0.00    -0.060 NA
ENDROOT
BRANCH   1   6
ATOM      6  C   UNL     1       1.380   0.203   0.177  1.00  0.00     0.067 A 
ATOM      7  C   UNL     1       3.657  -0.741   0.039  1.00  0.00    -0.023 A 
ATOM      8  C   UNL     1       2.250  -0.872  -0.064  1.00  0.00     0.034 A 
ATOM      9  C   UNL     1       4.193   0.515   0.396  1.00  0.00     0.071 A 
ATOM     10  C   UNL     1       3.302   1.588   0.635  1.00  0.00     0.031 A 
ATOM     11  C   UNL     1       1.915   1.438   0.529  1.00  0.00     0.030 A 
ATOM     12  C   UNL     1       4.450  -1.986  -0.250  1.00  0.00     0.047 C 
BRANCH   9  13
ATOM     13  N   UNL     1       5.587   0.801   0.539  1.00  0.00    -0.200 N 
ATOM     14  C   UNL     1       6.710   0.025   0.389  1.00  0.00     0.252 A 
ATOM     15  N   UNL     1       6.014   2.045   0.887  1.00  0.00    -0.040 NA
ATOM     16  N   UNL     1       7.785   0.742   0.630  1.00  0.00    -0.117 NA
ATOM     17  N   UNL     1       7.335   1.992   0.937  1.00  0.00    -0.024 NA
ENDBRANCH   9  13
ENDBRANCH   1   6
BRANCH   3  18
ATOM     18  N   UNL     1      -3.427   0.742   0.086  1.00  0.00    -0.336 N 
ATOM     19  H   UNL     1      -3.517   1.724   0.341  1.00  0.00     0.168 HD
BRANCH  18  20
ATOM     20  C   UNL     1      -4.710   0.176  -0.125  1.00  0.00     0.059 A 
ATOM     21  C   UNL     1      -4.907  -1.163  -0.487  1.00  0.00     0.027 A 
ATOM     22  C   UNL     1      -5.861   0.981   0.031  1.00  0.00     0.064 A 
ATOM     23  C   UNL     1      -6.194  -1.679  -0.685  1.00  0.00     0.002 A 
ATOM     24  C   UNL     1      -7.147   0.469  -0.166  1.00  0.00     0.023 A 
ATOM     25  C   UNL     1      -7.313  -0.865  -0.525  1.00  0.00     0.002 A 
ATOM     26  Cl  UNL     1      -5.711   2.649   0.478  1.00  0.00    -0.082 Cl
ENDBRANCH  18  20
ENDBRANCH   3  18
TORSDOF 4
