MODEL        4USER    Run = 4USERUSER    Estimated Free Energy of Binding    =  -9.82 kcal/mol  [=(1)+(2)+(3)-(4)]USERUSER    (1) Final Intermolecular Energy     = -11.01 kcal/molUSER        vdW + Hbond + desolv Energy     = -10.93 kcal/molUSER        Electrostatic Energy            =  -0.09 kcal/molUSER        Moving Ligand-Fixed Receptor    = -11.01 kcal/molUSER        Moving Ligand-Moving Receptor   =  +0.00 kcal/molUSER    (2) Final Total Internal Energy     =  -0.87 kcal/molUSER    (3) Torsional Free Energy           =  +1.19 kcal/molUSER    (4) Unbound System's Energy         =  -0.87 kcal/molUSERUSERREMARK SMILES Cc1cc(-n2cc(Nc3ccccc3Cl)nn2)ccc1-n1cnnn1REMARK SMILES IDX 5 1 6 2 7 3 16 4 17 5 4 6 2 7 3 8 20 9 19 10 18 11 1 12REMARK SMILES IDX 21 13 22 14 25 15 23 16 24 17 8 18 9 20 10 21 14 22 11 23REMARK SMILES IDX 13 24 12 25 15 26REMARK H PARENT 8 19USER                              x       y       z     vdW  Elec       q    TypeUSER                           _______ _______ _______ _____ _____    ______ ____ROOTATOM      1  N   UNL     1      36.595  44.643  15.874 -0.21 +0.09    -0.219 N  ATOM      2  C   UNL     1      35.225  44.751  15.811 -0.22 -0.09    +0.164 A  ATOM      3  C   UNL     1      34.766  43.469  15.977 -0.20 -0.07    +0.173 A  ATOM      4  N   UNL     1      35.823  42.627  16.133 -0.43 +0.04    -0.112 NA ATOM      5  N   UNL     1      36.936  43.345  16.070 -0.37 +0.02    -0.060 NA ENDROOTBRANCH   1   6ATOM      6  C   UNL     1      37.576  45.663  15.762 -0.32 -0.03    +0.067 A  ATOM      7  C   UNL     1      39.618  46.735  16.642 -0.45 +0.01    -0.023 A  ATOM      8  C   UNL     1      38.613  45.738  16.705 -0.36 -0.01    +0.034 A  ATOM      9  C   UNL     1      39.567  47.679  15.594 -0.47 -0.02    +0.071 A  ATOM     10  C   UNL     1      38.515  47.588  14.652 -0.48 -0.01    +0.031 A  ATOM     11  C   UNL     1      37.531  46.597  14.732 -0.39 -0.01    +0.030 A  ATOM     12  C   UNL     1      40.659  46.679  17.727 -0.54 -0.00    +0.047 C  BRANCH   9  13ATOM     13  N   UNL     1      40.507  48.739  15.399 -0.43 +0.05    -0.200 N  ATOM     14  C   UNL     1      41.043  49.303  14.267 -0.34 -0.06    +0.252 A  ATOM     15  N   UNL     1      41.048  49.398  16.459 -0.96 +0.01    -0.040 NA ATOM     16  N   UNL     1      41.877  50.264  14.598 -0.66 +0.02    -0.117 NA ATOM     17  N   UNL     1      41.867  50.309  15.961 -0.99 +0.00    -0.024 NA ENDBRANCH   9  13ENDBRANCH   1   6BRANCH   3  18ATOM     18  N   UNL     1      33.465  43.122  15.981 -0.13 +0.17    -0.336 N  ATOM     19  H   UNL     1      33.234  42.136  16.090 -0.48 -0.12    +0.168 HD BRANCH  18  20ATOM     20  C   UNL     1      32.277  43.887  15.857 -0.30 -0.03    +0.059 A  ATOM     21  C   UNL     1      32.223  45.116  15.186 -0.36 -0.02    +0.027 A  ATOM     22  C   UNL     1      31.077  43.409  16.430 -0.27 -0.02    +0.064 A  ATOM     23  C   UNL     1      31.027  45.837  15.089 -0.49 -0.00    +0.002 A  ATOM     24  C   UNL     1      29.881  44.127  16.335 -0.28 -0.01    +0.023 A  ATOM     25  C   UNL     1      29.857  45.345  15.662 -0.37 -0.00    +0.002 A  ATOM     26  Cl  UNL     1      31.051  41.898  17.279 -0.44 +0.02    -0.082 Cl ENDBRANCH  18  20ENDBRANCH   3  18TORSDOF 4TERENDMDL