REMARK SMILES Cc1cc(-n2cc(Nc3ccccc3F)nn2)ccc1C(=O)O
REMARK SMILES IDX 1 1 2 2 3 3 4 4 18 5 19 6 20 7 21 8 22 9 23 10 5 12 6 13
REMARK SMILES IDX 17 14 7 15 16 16 8 17 9 19 10 20 14 21 11 22 13 23 12 24
REMARK SMILES IDX 15 25
REMARK H PARENT 23 11 8 18
ROOT
ATOM      1  C   UNL     1       3.582   1.095  -1.894  1.00  0.00     0.045 C 
ATOM      2  C   UNL     1       3.309   0.203  -0.714  1.00  0.00    -0.034 A 
ATOM      3  C   UNL     1       1.967  -0.016  -0.338  1.00  0.00     0.032 A 
ATOM      4  C   UNL     1       1.644  -0.856   0.740  1.00  0.00     0.067 A 
ATOM      5  C   UNL     1       2.672  -1.482   1.455  1.00  0.00     0.029 A 
ATOM      6  C   UNL     1       4.005  -1.261   1.101  1.00  0.00     0.018 A 
ATOM      7  C   UNL     1       4.333  -0.410   0.034  1.00  0.00     0.062 A 
ENDROOT
BRANCH   7   8
ATOM      8  C   UNL     1       5.784  -0.241  -0.234  1.00  0.00     0.335 C 
ATOM      9  O   UNL     1       6.644  -1.077  -0.024  1.00  0.00    -0.246 OA
BRANCH   8  10
ATOM     10  O   UNL     1       6.102   0.989  -0.668  1.00  0.00    -0.478 OA
ATOM     11  H   UNL     1       7.079   0.965  -0.744  1.00  0.00     0.297 HD
ENDBRANCH   8  10
ENDBRANCH   7   8
BRANCH   4  12
ATOM     12  N   UNL     1       0.293  -1.081   1.115  1.00  0.00    -0.219 N 
ATOM     13  C   UNL     1      -0.856  -0.592   0.541  1.00  0.00     0.164 A 
ATOM     14  N   UNL     1      -0.032  -1.881   2.163  1.00  0.00    -0.060 NA
ATOM     15  C   UNL     1      -1.871  -1.091   1.313  1.00  0.00     0.173 A 
ATOM     16  N   UNL     1      -1.353  -1.897   2.280  1.00  0.00    -0.112 NA
BRANCH  15  17
ATOM     17  N   UNL     1      -3.203  -0.954   1.183  1.00  0.00    -0.335 N 
ATOM     18  H   UNL     1      -3.753  -1.554   1.792  1.00  0.00     0.168 HD
BRANCH  17  19
ATOM     19  C   UNL     1      -4.008  -0.032   0.479  1.00  0.00     0.076 A 
ATOM     20  C   UNL     1      -5.311  -0.435   0.132  1.00  0.00     0.029 A 
ATOM     21  C   UNL     1      -3.588   1.230   0.034  1.00  0.00     0.146 A 
ATOM     22  C   UNL     1      -6.157   0.395  -0.613  1.00  0.00     0.002 A 
ATOM     23  C   UNL     1      -4.428   2.063  -0.708  1.00  0.00     0.041 A 
ATOM     24  C   UNL     1      -5.715   1.645  -1.034  1.00  0.00     0.003 A 
ATOM     25  F   UNL     1      -2.378   1.712   0.355  1.00  0.00    -0.205 F 
ENDBRANCH  17  19
ENDBRANCH  15  17
ENDBRANCH   4  12
TORSDOF 5
