MODEL        4USER    Run = 4USERUSER    Estimated Free Energy of Binding    =  -8.74 kcal/mol  [=(1)+(2)+(3)-(4)]USERUSER    (1) Final Intermolecular Energy     = -10.53 kcal/molUSER        vdW + Hbond + desolv Energy     = -10.07 kcal/molUSER        Electrostatic Energy            =  -0.47 kcal/molUSER        Moving Ligand-Fixed Receptor    = -10.53 kcal/molUSER        Moving Ligand-Moving Receptor   =  +0.00 kcal/molUSER    (2) Final Total Internal Energy     =  -0.66 kcal/molUSER    (3) Torsional Free Energy           =  +1.79 kcal/molUSER    (4) Unbound System's Energy         =  -0.66 kcal/molUSERUSERREMARK SMILES COc1cccc(Nc2cn(-c3ccc(C(=O)O)c(C)c3)nn2)c1REMARK SMILES IDX 9 1 10 2 11 3 22 4 23 5 8 6 7 8 3 9 4 10 24 11 5 12 6 13REMARK SMILES IDX 2 14 1 15 12 16 13 17 21 18 14 19 19 20 15 21 20 22 16 23REMARK SMILES IDX 17 24 18 25REMARK H PARENT 8 7 18 26USER                              x       y       z     vdW  Elec       q    TypeUSER                           _______ _______ _______ _____ _____    ______ ____ROOTATOM      1  C   UNL     1      41.424  49.058  15.255 -0.40 -0.01    +0.173 A  ATOM      2  C   UNL     1      41.827  49.262  13.959 -0.33 -0.02    +0.164 A  ATOM      3  N   UNL     1      42.443  50.492  13.975 -0.51 +0.05    -0.219 N  ATOM      4  N   UNL     1      42.407  50.997  15.231 -0.47 +0.01    -0.060 NA ATOM      5  N   UNL     1      41.786  50.126  16.013 -1.01 -0.00    -0.112 NA ENDROOTBRANCH   1   6ATOM      6  N   UNL     1      40.768  47.958  15.684 -0.26 +0.05    -0.337 N  ATOM      7  H   UNL     1      41.216  47.409  16.410 -0.07 -0.02    +0.168 HD BRANCH   6   8ATOM      8  C   UNL     1      39.525  47.400  15.303 -0.47 -0.01    +0.043 A  ATOM      9  C   UNL     1      37.673  47.378  13.698 -0.43 -0.04    +0.120 A  ATOM     10  C   UNL     1      37.049  46.376  14.438 -0.39 -0.02    +0.046 A  ATOM     11  C   UNL     1      38.903  47.884  14.133 -0.41 -0.02    +0.072 A  ATOM     12  C   UNL     1      37.644  45.884  15.596 -0.37 -0.00    +0.006 A  ATOM     13  C   UNL     1      38.873  46.395  16.022 -0.40 -0.01    +0.026 A  BRANCH   9  14ATOM     14  O   UNL     1      36.986  47.774  12.583 -0.84 +0.15    -0.497 OA ATOM     15  C   UNL     1      36.168  46.800  11.947 -0.50 -0.14    +0.278 C  ENDBRANCH   9  14ENDBRANCH   6   8ENDBRANCH   1   6BRANCH   3  16ATOM     16  C   UNL     1      43.049  51.198  12.902 -0.42 -0.03    +0.067 A  ATOM     17  C   UNL     1      42.522  51.140  11.610 -0.33 -0.02    +0.029 A  ATOM     18  C   UNL     1      44.198  51.970  13.140 -0.03 -0.01    +0.032 A  ATOM     19  C   UNL     1      43.140  51.847  10.572 -0.51 -0.01    +0.018 A  ATOM     20  C   UNL     1      44.829  52.687  12.102 -0.33 +0.02    -0.034 A  ATOM     21  C   UNL     1      44.291  52.623  10.800 -0.40 -0.03    +0.062 A  ATOM     22  C   UNL     1      46.057  53.491  12.437 -0.22 -0.01    +0.045 C  BRANCH  21  23ATOM     23  C   UNL     1      44.917  53.362   9.660 -0.19 -0.14    +0.335 C  ATOM     24  O   UNL     1      46.103  53.482   9.418 -0.14 +0.06    -0.246 OA BRANCH  23  25ATOM     25  O   UNL     1      44.004  53.931   8.850 -0.18 +0.25    -0.478 OA ATOM     26  H   UNL     1      43.558  54.582   9.431 -0.45 -0.49    +0.297 HD ENDBRANCH  23  25ENDBRANCH  21  23ENDBRANCH   3  16TORSDOF 6TERENDMDL