REMARK SMILES COc1cc(F)c(O)c(C(=O)c2ccc(C(=O)O[C@@H]3CCCNC[C@H]3NC(=O)c3ccncc3)cc2)c1
REMARK SMILES IDX 18 1 16 2 17 3 15 4 12 5 13 6 36 7 14 8 35 9 10 10 11 11
REMARK SMILES IDX 9 12 3 13 4 14 37 15 5 16 7 17 6 18 2 19 1 20 8 21 19 23
REMARK SMILES IDX 25 25 24 26 23 27 22 29 21 30 20 31 26 33 27 34 28 36 29 37
REMARK SMILES IDX 30 38 34 39 31 40 33 41 32 42
REMARK H PARENT 8 22 23 28 26 35
REMARK Flexibility Score:   99.900
ROOT
ATOM      1  O   UNL     1      -0.918   0.129   0.180  1.00  0.00    -0.457 OA
ENDROOT
BRANCH   1   2
ATOM      2  C   UNL     1      -0.133  -0.206  -0.869  1.00  0.00     0.338 C 
ATOM      3  O   UNL     1      -0.453  -0.177  -2.043  1.00  0.00    -0.246 OA
BRANCH   2   4
ATOM      4  C   UNL     1       1.218  -0.618  -0.403  1.00  0.00     0.060 A 
ATOM      5  C   UNL     1       3.796  -1.389   0.369  1.00  0.00     0.023 A 
ATOM      6  C   UNL     1       3.499  -1.223  -0.989  1.00  0.00     0.013 A 
ATOM      7  C   UNL     1       2.804  -1.201   1.338  1.00  0.00     0.013 A 
ATOM      8  C   UNL     1       2.212  -0.835  -1.370  1.00  0.00     0.016 A 
ATOM      9  C   UNL     1       1.519  -0.806   0.955  1.00  0.00     0.016 A 
BRANCH   5  10
ATOM     10  C   UNL     1       5.142  -1.811   0.810  1.00  0.00     0.196 C 
ATOM     11  O   UNL     1       5.236  -2.729   1.623  1.00  0.00    -0.288 OA
BRANCH  10  12
ATOM     12  C   UNL     1       6.381  -1.171   0.292  1.00  0.00     0.071 A 
ATOM     13  C   UNL     1       7.540   0.731  -0.690  1.00  0.00     0.122 A 
ATOM     14  C   UNL     1       8.727  -0.002  -0.686  1.00  0.00     0.089 A 
ATOM     15  C   UNL     1       6.367   0.147  -0.200  1.00  0.00     0.062 A 
ATOM     16  C   UNL     1       8.745  -1.295  -0.175  1.00  0.00     0.169 A 
ATOM     17  C   UNL     1       7.586  -1.883   0.326  1.00  0.00     0.162 A 
ATOM     18  F   UNL     1       9.903  -1.968  -0.167  1.00  0.00    -0.203 F 
BRANCH  13  19
ATOM     19  O   UNL     1       7.652   1.994  -1.200  1.00  0.00    -0.497 OA
ATOM     20  C   UNL     1       6.530   2.856  -1.061  1.00  0.00     0.278 C 
ENDBRANCH  13  19
BRANCH  17  21
ATOM     21  O   UNL     1       7.681  -3.153   0.834  1.00  0.00    -0.504 OA
ATOM     22  H   UNL     1       6.837  -3.371   1.291  1.00  0.00     0.293 HD
ENDBRANCH  17  21
ENDBRANCH  10  12
ENDBRANCH   5  10
ENDBRANCH   2   4
ENDBRANCH   1   2
BRANCH   1  23
ATOM     23  C   UNL     1      -2.250   0.616  -0.132  1.00  0.00     0.200 CG0
ATOM     24  G   UNL     1      -2.708   1.436   1.083  1.00  0.00     0.000 G0
BRANCH  23  25
ATOM     25  C   UNL     1      -3.202  -0.529  -0.556  1.00  0.00     0.137 C 
BRANCH  25  26
ATOM     26  C   UNL     1      -3.053  -1.795   0.315  1.00  0.00     0.109 C 
BRANCH  26  27
ATOM     27  N   UNL     1      -3.638  -1.684   1.660  1.00  0.00    -0.315 NA
ATOM     28  H   UNL     1      -3.587  -2.608   2.095  1.00  0.00     0.122 HD
BRANCH  27  29
ATOM     29  C   UNL     1      -2.919  -0.739   2.517  1.00  0.00     0.081 C 
BRANCH  29  30
ATOM     30  C   UNL     1      -3.341   0.705   2.270  1.00  0.00     0.019 C 
BRANCH  30  31
ATOM     31  C   UNL     1      -2.708   1.436   1.083  1.00  0.00     0.049 CG0
ATOM     32  G   UNL     1      -2.250   0.616  -0.132  1.00  0.00     0.000 G0
ENDBRANCH  30  31
ENDBRANCH  29  30
ENDBRANCH  27  29
ENDBRANCH  26  27
ENDBRANCH  25  26
BRANCH  25  33
ATOM     33  N   UNL     1      -4.608  -0.119  -0.581  1.00  0.00    -0.344 N 
ATOM     34  C   UNL     1      -5.119   0.732  -1.530  1.00  0.00     0.251 C 
ATOM     35  H   UNL     1      -5.181  -0.508   0.156  1.00  0.00     0.164 HD
ATOM     36  O   UNL     1      -4.453   1.177  -2.458  1.00  0.00    -0.269 OA
BRANCH  34  37
ATOM     37  C   UNL     1      -6.554   1.098  -1.402  1.00  0.00     0.042 A 
ATOM     38  C   UNL     1      -7.231   1.064  -0.184  1.00  0.00     0.034 A 
ATOM     39  C   UNL     1      -7.227   1.521  -2.550  1.00  0.00     0.034 A 
ATOM     40  C   UNL     1      -8.565   1.433  -0.175  1.00  0.00     0.112 A 
ATOM     41  C   UNL     1      -8.558   1.871  -2.434  1.00  0.00     0.112 A 
ATOM     42  N   UNL     1      -9.242   1.831  -1.272  1.00  0.00    -0.265 NA
ENDBRANCH  34  37
ENDBRANCH  25  33
ENDBRANCH  23  25
ENDBRANCH   1  23
TORSDOF 9
