MODEL        6USER    Run = 6USERUSER    Estimated Free Energy of Binding    =  -7.10 kcal/mol  [=(1)+(2)+(3)-(4)]USERUSER    (1) Final Intermolecular Energy     = -11.57 kcal/molUSER        vdW + Hbond + desolv Energy     = -11.69 kcal/molUSER        Electrostatic Energy            =  -0.16 kcal/molUSER        Moving Ligand-Fixed Receptor    = -11.85 kcal/molUSER        Moving Ligand-Moving Receptor   =  +0.28 kcal/molUSER    (2) Final Total Internal Energy     =  -2.80 kcal/molUSER    (3) Torsional Free Energy           =  +4.47 kcal/molUSER    (4) Unbound System's Energy         =  -2.80 kcal/molUSERUSERREMARK SMILES COc1cc(F)c(O)c(C(=O)c2ccc(C(=O)O[C@@H]3CCCNC[C@H]3NC(=O)c3ccncc3)cc2)c1REMARK SMILES IDX 18 1 16 2 17 3 15 4 12 5 13 6 36 7 14 8 35 9 10 10 11 11REMARK SMILES IDX 9 12 3 13 4 14 37 15 5 16 7 17 6 18 2 19 1 20 8 21 19 23REMARK SMILES IDX 25 25 24 26 23 27 22 29 21 30 20 31 26 33 27 34 28 36 29 37REMARK SMILES IDX 30 38 34 39 31 40 33 41 32 42REMARK H PARENT 8 22 23 28 26 35REMARK Flexibility Score:   99.900USER                              x       y       z     vdW  Elec       q    TypeUSER                           _______ _______ _______ _____ _____    ______ ____ROOTATOM      1  O   UNL     1      39.575  43.117  24.147 -0.05 -0.02    -0.457 OA ENDROOTBRANCH   1   2ATOM      2  C   UNL     1      40.260  44.277  24.265 -0.05 +0.01    +0.338 C  ATOM      3  O   UNL     1      40.563  44.828  25.307 -0.05 -0.01    -0.246 OA BRANCH   2   4ATOM      4  C   UNL     1      40.623  44.811  22.925 -0.17 +0.00    +0.060 A  ATOM      5  C   UNL     1      41.229  45.749  20.358 -0.36 +0.00    +0.023 A  ATOM      6  C   UNL     1      40.311  44.705  20.516 -0.35 +0.00    +0.013 A  ATOM      7  C   UNL     1      41.867  46.305  21.473 -0.30 +0.00    +0.013 A  ATOM      8  C   UNL     1      40.009  44.241  21.799 -0.27 +0.00    +0.016 A  ATOM      9  C   UNL     1      41.557  45.845  22.757 -0.20 +0.00    +0.016 A  BRANCH   5  10ATOM     10  C   UNL     1      41.585  46.257  19.017 -0.40 +0.01    +0.196 C  ATOM     11  O   UNL     1      42.774  46.390  18.731 -0.28 -0.06    -0.288 OA BRANCH  10  12ATOM     12  C   UNL     1      40.553  46.599  18.001 -0.45 -0.01    +0.071 A  ATOM     13  C   UNL     1      38.423  46.163  16.905 -0.31 -0.04    +0.122 A  ATOM     14  C   UNL     1      38.637  47.261  16.072 -0.37 -0.04    +0.089 A  ATOM     15  C   UNL     1      39.380  45.832  17.871 -0.39 -0.01    +0.062 A  ATOM     16  C   UNL     1      39.784  48.034  16.220 -0.38 -0.05    +0.169 A  ATOM     17  C   UNL     1      40.738  47.721  17.185 -0.40 -0.02    +0.162 A  ATOM     18  F   UNL     1      39.954  49.093  15.419 -0.16 +0.08    -0.203 F  BRANCH  13  19ATOM     19  O   UNL     1      37.254  45.493  16.676 -0.05 +0.19    -0.497 OA ATOM     20  C   UNL     1      36.144  46.256  16.220 -0.23 -0.21    +0.278 C  ENDBRANCH  13  19BRANCH  17  21ATOM     21  O   UNL     1      41.834  48.539  17.290 -0.58 -0.04    -0.504 OA ATOM     22  H   UNL     1      42.644  47.979  17.286 -0.30 -0.01    +0.293 HD ENDBRANCH  17  21ENDBRANCH  10  12ENDBRANCH   5  10ENDBRANCH   2   4ENDBRANCH   1   2BRANCH   1  23ATOM     23  C   UNL     1      38.521  42.881  25.117 -0.19 +0.00    +0.200 CG0ATOM     24  G   UNL     1      39.179  42.171  26.309 +0.00 +0.00    +0.000 G0 BRANCH  23  25ATOM     25  C   UNL     1      37.311  42.144  24.492 -0.35 +0.00    +0.137 C  BRANCH  25  26ATOM     26  C   UNL     1      36.095  42.062  25.440 -0.34 -0.01    +0.109 C  BRANCH  26  27ATOM     27  N   UNL     1      36.366  41.401  26.725 -0.27 +0.09    -0.315 NA ATOM     28  H   UNL     1      37.020  40.636  26.546 -0.41 -0.04    +0.122 HD BRANCH  27  29ATOM     29  C   UNL     1      36.974  42.298  27.710 -0.40 -0.02    +0.081 C  BRANCH  29  30ATOM     30  C   UNL     1      38.498  42.244  27.680 -0.40 -0.00    +0.019 C  BRANCH  30  31ATOM     31  C   UNL     1      39.178  42.172  26.310 -0.27 -0.00    +0.049 CG0ATOM     32  G   UNL     1      38.518  42.880  25.118 +0.00 +0.00    +0.000 G0 ENDBRANCH  30  31ENDBRANCH  29  30ENDBRANCH  27  29ENDBRANCH  26  27ENDBRANCH  25  26BRANCH  25  33ATOM     33  N   UNL     1      36.893  42.722  23.213 -0.20 -0.03    -0.344 N  ATOM     34  C   UNL     1      36.656  41.962  22.094 -0.41 +0.01    +0.251 C  ATOM     35  H   UNL     1      36.791  43.728  23.210 +0.08 +0.03    +0.164 HD ATOM     36  O   UNL     1      36.727  40.738  22.089 -0.46 -0.01    -0.269 OA BRANCH  34  37ATOM     37  C   UNL     1      36.283  42.690  20.853 -0.44 +0.00    +0.042 A  ATOM     38  C   UNL     1      36.910  43.872  20.460 -0.38 -0.00    +0.034 A  ATOM     39  C   UNL     1      35.287  42.140  20.044 -0.39 -0.00    +0.034 A  ATOM     40  C   UNL     1      36.492  44.465  19.281 -0.28 -0.02    +0.112 A  ATOM     41  C   UNL     1      34.944  42.808  18.885 -0.32 -0.02    +0.112 A  ATOM     42  N   UNL     1      35.522  43.961  18.490 -0.15 +0.06    -0.265 NA ENDBRANCH  34  37ENDBRANCH  25  33ENDBRANCH  23  25ENDBRANCH   1  23TORSDOF 9TERENDMDL