MODEL        1USER    Run = 1USERUSER    Estimated Free Energy of Binding    =  -8.84 kcal/mol  [=(1)+(2)+(3)-(4)]USERUSER    (1) Final Intermolecular Energy     = -13.61 kcal/molUSER        vdW + Hbond + desolv Energy     = -14.02 kcal/molUSER        Electrostatic Energy            =  -0.20 kcal/molUSER        Moving Ligand-Fixed Receptor    = -14.22 kcal/molUSER        Moving Ligand-Moving Receptor   =  +0.61 kcal/molUSER    (2) Final Total Internal Energy     =  -3.22 kcal/molUSER    (3) Torsional Free Energy           =  +4.77 kcal/molUSER    (4) Unbound System's Energy         =  -3.22 kcal/molUSERUSERREMARK SMILES COc1ccc(O)c(C(=O)c2ccc(C(=O)O[C@@H]3CCCNC[C@H]3NC(=O)c3ccc(N4CCN(C)CC4)nc3)cc2)c1FREMARK SMILES IDX 17 1 15 2 16 3 14 4 11 5 12 6 42 7 13 8 41 9 9 10 10 11 8 12REMARK SMILES IDX 3 13 4 14 43 15 5 16 6 17 44 18 2 19 1 20 7 21 18 23 19 24REMARK SMILES IDX 24 26 23 27 22 28 21 30 20 31 25 33 26 34 27 36 28 37 29 38REMARK SMILES IDX 40 39 30 40 39 41 31 42 32 43 33 44 38 45 34 46 37 47 35 48REMARK SMILES IDX 36 49REMARK H PARENT 7 22 22 29 25 35REMARK Flexibility Score:  213.900USER                              x       y       z     vdW  Elec       q    TypeUSER                           _______ _______ _______ _____ _____    ______ ____ROOTATOM      1  O   UNL     1      43.582  47.074  23.990 -0.02 -0.08    -0.457 OA ENDROOTBRANCH   1   2ATOM      2  C   UNL     1      42.660  48.040  23.753 -0.20 +0.06    +0.338 C  ATOM      3  O   UNL     1      42.866  49.114  23.210 -0.96 -0.10    -0.246 OA BRANCH   2   4ATOM      4  C   UNL     1      41.316  47.611  24.226 -0.23 +0.01    +0.060 A  ATOM      5  C   UNL     1      38.747  46.788  25.006 -0.27 +0.00    +0.023 A  ATOM      6  C   UNL     1      39.700  47.133  25.972 -0.20 +0.00    +0.013 A  ATOM      7  C   UNL     1      39.086  46.828  23.649 -0.32 +0.00    +0.013 A  ATOM      8  C   UNL     1      40.977  47.551  25.584 -0.18 +0.00    +0.016 A  ATOM      9  C   UNL     1      40.363  47.246  23.264 -0.15 +0.00    +0.016 A  BRANCH   5  10ATOM     10  C   UNL     1      37.420  46.310  25.463 -0.24 +0.01    +0.199 C  ATOM     11  O   UNL     1      36.557  47.141  25.752 -0.72 +0.01    -0.288 OA BRANCH  10  12ATOM     12  C   UNL     1      37.094  44.879  25.650 -0.28 -0.00    +0.104 A  ATOM     13  C   UNL     1      37.034  42.576  24.852 -0.28 -0.00    +0.155 A  ATOM     14  C   UNL     1      36.480  42.172  26.069 -0.40 -0.01    +0.053 A  ATOM     15  C   UNL     1      37.327  43.933  24.651 -0.22 +0.01    +0.179 A  ATOM     16  C   UNL     1      36.209  43.117  27.063 -0.41 -0.01    +0.051 A  ATOM     17  C   UNL     1      36.500  44.462  26.847 -0.30 -0.02    +0.130 A  ATOM     18  F   UNL     1      37.824  44.316  23.464 -0.08 -0.02    -0.202 F  BRANCH  13  19ATOM     19  O   UNL     1      37.323  41.749  23.800 -0.16 -0.03    -0.494 OA ATOM     20  C   UNL     1      36.547  41.899  22.618 -0.37 +0.02    +0.278 C  ENDBRANCH  13  19BRANCH  17  21ATOM     21  O   UNL     1      36.174  45.325  27.858 -0.16 +0.14    -0.507 OA ATOM     22  H   UNL     1      35.739  46.112  27.456 -0.35 -0.15    +0.293 HD ENDBRANCH  17  21ENDBRANCH  10  12ENDBRANCH   5  10ENDBRANCH   2   4ENDBRANCH   1   2BRANCH   1  23ATOM     23  C   UNL     1      43.153  45.705  23.759 -0.07 +0.03    +0.200 C  BRANCH  23  24ATOM     24  C   UNL     1      43.503  44.884  25.007 -0.05 +0.00    +0.049 CG0ATOM     25  G   UNL     1      42.704  43.598  25.183 +0.00 +0.00    +0.000 G0 ENDBRANCH  23  24BRANCH  23  26ATOM     26  C   UNL     1      43.800  45.246  22.429 -0.18 +0.05    +0.137 C  BRANCH  26  27ATOM     27  C   UNL     1      44.204  43.756  22.402 -0.23 +0.03    +0.109 C  BRANCH  27  28ATOM     28  N   UNL     1      43.104  42.859  22.801 -0.17 -0.00    -0.315 NA ATOM     29  H   UNL     1      43.185  41.998  22.256 -0.48 -0.03    +0.122 HD BRANCH  28  30ATOM     30  C   UNL     1      43.135  42.493  24.216 -0.19 -0.01    +0.081 C  BRANCH  30  31ATOM     31  C   UNL     1      42.707  43.597  25.183 -0.11 -0.00    +0.019 CG0ATOM     32  G   UNL     1      43.508  44.882  25.014 +0.00 +0.00    +0.000 G0 ENDBRANCH  30  31ENDBRANCH  28  30ENDBRANCH  27  28ENDBRANCH  26  27BRANCH  26  33ATOM     33  N   UNL     1      42.927  45.521  21.281 -0.07 -0.12    -0.344 N  ATOM     34  C   UNL     1      43.120  46.589  20.439 -0.16 +0.10    +0.253 C  ATOM     35  H   UNL     1      42.172  44.853  21.159 +0.08 +0.03    +0.164 HD ATOM     36  O   UNL     1      44.081  47.346  20.532 -0.43 -0.15    -0.269 OA BRANCH  34  37ATOM     37  C   UNL     1      42.115  46.798  19.373 -0.45 +0.01    +0.058 A  ATOM     38  C   UNL     1      40.971  46.008  19.337 -0.43 +0.00    +0.019 A  ATOM     39  C   UNL     1      42.269  47.735  18.365 -0.40 -0.00    +0.127 A  ATOM     40  C   UNL     1      40.035  46.202  18.319 -0.43 -0.00    +0.048 A  ATOM     41  N   UNL     1      41.367  47.940  17.371 -0.48 +0.02    -0.239 NA ATOM     42  C   UNL     1      40.256  47.167  17.333 -0.40 -0.02    +0.128 A  BRANCH  42  43ATOM     43  N   UNL     1      39.298  47.369  16.322 -0.20 +0.11    -0.354 N  ATOM     44  C   UNL     1      38.645  46.118  15.874 -0.36 -0.04    +0.133 C  ATOM     45  C   UNL     1      39.823  48.153  15.181 -0.51 -0.04    +0.133 C  ATOM     46  C   UNL     1      37.550  46.422  14.824 -0.39 -0.05    +0.105 C  ATOM     47  C   UNL     1      38.702  48.426  14.150 -0.46 -0.04    +0.105 C  ATOM     48  N   UNL     1      38.061  47.184  13.665 -0.32 +0.09    -0.303 NA ATOM     49  C   UNL     1      36.983  47.491  12.729 -0.61 -0.04    +0.105 C  ENDBRANCH  42  43ENDBRANCH  34  37ENDBRANCH  26  33ENDBRANCH  23  26ENDBRANCH   1  23TORSDOF 10TERENDMDL