REMARK SMILES COc1ccc(O)c(C(=O)c2ccc(C(=O)O[C@@H]3CCCNC[C@H]3NC(=O)c3ccc(N4CCN(C)CC4)nc3)cc2)c1F
REMARK SMILES IDX 17 1 15 2 16 3 14 4 11 5 12 6 42 7 13 8 41 9 9 10 10 11 8 12
REMARK SMILES IDX 3 13 4 14 43 15 5 16 6 17 44 18 2 19 1 20 7 21 18 23 19 24
REMARK SMILES IDX 24 26 23 27 22 28 21 30 20 31 25 33 26 34 27 36 28 37 29 38
REMARK SMILES IDX 40 39 30 40 39 41 31 42 32 43 33 44 38 45 34 46 37 47 35 48
REMARK SMILES IDX 36 49
REMARK H PARENT 7 22 22 29 25 35
REMARK Flexibility Score:  213.900
ROOT
ATOM      1  O   UNL     1       1.685  -0.346  -2.026  1.00  0.00    -0.457 OA
ENDROOT
BRANCH   1   2
ATOM      2  C   UNL     1       2.359  -1.192  -1.208  1.00  0.00     0.338 C 
ATOM      3  O   UNL     1       1.906  -2.194  -0.677  1.00  0.00    -0.246 OA
BRANCH   2   4
ATOM      4  C   UNL     1       3.772  -0.754  -1.049  1.00  0.00     0.060 A 
ATOM      5  C   UNL     1       6.458  -0.021  -0.678  1.00  0.00     0.023 A 
ATOM      6  C   UNL     1       5.618   0.762  -1.479  1.00  0.00     0.013 A 
ATOM      7  C   UNL     1       5.963  -1.186  -0.082  1.00  0.00     0.013 A 
ATOM      8  C   UNL     1       4.278   0.402  -1.658  1.00  0.00     0.016 A 
ATOM      9  C   UNL     1       4.623  -1.544  -0.262  1.00  0.00     0.016 A 
BRANCH   5  10
ATOM     10  C   UNL     1       7.881   0.374  -0.550  1.00  0.00     0.199 C 
ATOM     11  O   UNL     1       8.457   0.846  -1.532  1.00  0.00    -0.288 OA
BRANCH  10  12
ATOM     12  C   UNL     1       8.670   0.173   0.685  1.00  0.00     0.104 A 
ATOM     13  C   UNL     1       8.851   0.060   3.114  1.00  0.00     0.155 A 
ATOM     14  C   UNL     1      10.209  -0.245   2.995  1.00  0.00     0.053 A 
ATOM     15  C   UNL     1       8.095   0.276   1.952  1.00  0.00     0.179 A 
ATOM     16  C   UNL     1      10.803  -0.315   1.732  1.00  0.00     0.051 A 
ATOM     17  C   UNL     1      10.041  -0.092   0.588  1.00  0.00     0.130 A 
ATOM     18  F   UNL     1       6.799   0.605   2.079  1.00  0.00    -0.202 F 
BRANCH  13  19
ATOM     19  O   UNL     1       8.165   0.176   4.293  1.00  0.00    -0.494 OA
ATOM     20  C   UNL     1       8.891  -0.043   5.496  1.00  0.00     0.278 C 
ENDBRANCH  13  19
BRANCH  17  21
ATOM     21  O   UNL     1      10.707  -0.148  -0.607  1.00  0.00    -0.507 OA
ATOM     22  H   UNL     1      10.118   0.232  -1.299  1.00  0.00     0.293 HD
ENDBRANCH  17  21
ENDBRANCH  10  12
ENDBRANCH   5  10
ENDBRANCH   2   4
ENDBRANCH   1   2
BRANCH   1  23
ATOM     23  C   UNL     1       0.270  -0.620  -2.210  1.00  0.00     0.200 C 
BRANCH  23  24
ATOM     24  C   UNL     1       0.135  -1.707  -3.284  1.00  0.00     0.049 CG0
ATOM     25  G   UNL     1      -1.269  -1.892  -3.848  1.00  0.00     0.000 G0
ENDBRANCH  23  24
BRANCH  23  26
ATOM     26  C   UNL     1      -0.418   0.735  -2.511  1.00  0.00     0.137 C 
BRANCH  26  27
ATOM     27  C   UNL     1      -0.550   1.058  -4.015  1.00  0.00     0.109 C 
BRANCH  27  28
ATOM     28  N   UNL     1      -1.754   0.461  -4.624  1.00  0.00    -0.315 NA
ATOM     29  H   UNL     1      -1.972   0.987  -5.473  1.00  0.00     0.122 HD
BRANCH  28  30
ATOM     30  C   UNL     1      -1.581  -0.940  -5.002  1.00  0.00     0.081 C 
BRANCH  30  31
ATOM     31  C   UNL     1      -1.269  -1.892  -3.848  1.00  0.00     0.019 CG0
ATOM     32  G   UNL     1       0.135  -1.707  -3.284  1.00  0.00     0.000 G0
ENDBRANCH  30  31
ENDBRANCH  28  30
ENDBRANCH  27  28
ENDBRANCH  26  27
BRANCH  26  33
ATOM     33  N   UNL     1      -1.746   0.815  -1.891  1.00  0.00    -0.344 N 
ATOM     34  C   UNL     1      -1.927   1.048  -0.549  1.00  0.00     0.253 C 
ATOM     35  H   UNL     1      -2.519   0.689  -2.537  1.00  0.00     0.164 HD
ATOM     36  O   UNL     1      -1.000   1.287   0.217  1.00  0.00    -0.269 OA
BRANCH  34  37
ATOM     37  C   UNL     1      -3.317   1.018  -0.041  1.00  0.00     0.058 A 
ATOM     38  C   UNL     1      -3.645   1.715   1.117  1.00  0.00     0.019 A 
ATOM     39  C   UNL     1      -4.326   0.290  -0.649  1.00  0.00     0.127 A 
ATOM     40  C   UNL     1      -4.956   1.669   1.597  1.00  0.00     0.048 A 
ATOM     41  N   UNL     1      -5.606   0.238  -0.198  1.00  0.00    -0.239 NA
ATOM     42  C   UNL     1      -5.924   0.912   0.931  1.00  0.00     0.128 A 
BRANCH  42  43
ATOM     43  N   UNL     1      -7.247   0.887   1.412  1.00  0.00    -0.354 N 
ATOM     44  C   UNL     1      -7.358   0.380   2.798  1.00  0.00     0.133 C 
ATOM     45  C   UNL     1      -8.178   0.190   0.496  1.00  0.00     0.133 C 
ATOM     46  C   UNL     1      -8.824   0.457   3.289  1.00  0.00     0.105 C 
ATOM     47  C   UNL     1      -9.628   0.280   1.026  1.00  0.00     0.105 C 
ATOM     48  N   UNL     1      -9.766  -0.255   2.399  1.00  0.00    -0.303 NA
ATOM     49  C   UNL     1     -11.139  -0.110   2.874  1.00  0.00     0.105 C 
ENDBRANCH  42  43
ENDBRANCH  34  37
ENDBRANCH  26  33
ENDBRANCH  23  26
ENDBRANCH   1  23
TORSDOF 10
