MODEL        9USER    Run = 9USERUSER    Estimated Free Energy of Binding    = -13.11 kcal/mol  [=(1)+(2)+(3)-(4)]USERUSER    (1) Final Intermolecular Energy     = -14.90 kcal/molUSER        vdW + Hbond + desolv Energy     = -14.73 kcal/molUSER        Electrostatic Energy            =  -0.16 kcal/molUSER        Moving Ligand-Fixed Receptor    = -14.90 kcal/molUSER        Moving Ligand-Moving Receptor   =  +0.00 kcal/molUSER    (2) Final Total Internal Energy     =  -2.65 kcal/molUSER    (3) Torsional Free Energy           =  +1.79 kcal/molUSER    (4) Unbound System's Energy         =  -2.65 kcal/molUSERUSERREMARK SMILES Oc1nc2ccccc2n1C1CCN(Cc2ccc(-c3nc4cc(F)ccc4nc3-c3ccc(F)cc3)cc2)CC1REMARK SMILES IDX 15 1 14 2 11 3 12 4 41 5 13 6 40 7 10 8 2 9 3 10 4 11 9 12REMARK SMILES IDX 5 13 8 14 6 15 7 16 1 17 16 19 17 20 39 21 18 22 38 23 19 24REMARK SMILES IDX 20 25 21 26 30 27 22 28 29 29 23 30 28 31 24 32 27 33 26 34REMARK SMILES IDX 25 35 31 36 32 37 37 38 33 39 36 40 34 41 35 42REMARK H PARENT 1 18USER                              x       y       z     vdW  Elec       q    TypeUSER                           _______ _______ _______ _____ _____    ______ ____ROOTATOM      1  C   UNL     1      35.913  46.247  13.513 -0.48 -0.07    +0.120 C  ENDROOTBRANCH   1   2ATOM      2  N   UNL     1      36.706  47.467  13.293 -0.41 +0.14    -0.299 NA ATOM      3  C   UNL     1      38.659  47.592  15.415 -0.48 -0.04    +0.095 C  ATOM      4  C   UNL     1      37.858  48.852  15.068 -0.53 -0.03    +0.041 C  ATOM      5  C   UNL     1      38.930  46.721  14.175 -0.45 -0.01    +0.041 C  ATOM      6  C   UNL     1      36.552  48.457  14.373 -0.22 -0.07    +0.087 C  ATOM      7  C   UNL     1      38.104  47.172  12.969 -0.33 -0.02    +0.087 C  BRANCH   3   8ATOM      8  N   UNL     1      39.863  47.883  16.178 -0.29 +0.08    -0.291 N  ATOM      9  C   UNL     1      40.732  48.918  15.963 -0.34 -0.06    +0.295 A  ATOM     10  N   UNL     1      41.723  48.946  16.812 -0.88 -0.03    -0.195 NA ATOM     11  C   UNL     1      41.504  47.862  17.628 -0.40 -0.01    +0.092 A  ATOM     12  C   UNL     1      40.346  47.171  17.257 -0.45 -0.01    +0.072 A  ATOM     13  C   UNL     1      42.264  47.401  18.715 -0.53 +0.00    +0.031 A  ATOM     14  C   UNL     1      39.910  46.023  17.931 -0.44 -0.00    +0.029 A  ATOM     15  C   UNL     1      41.841  46.255  19.401 -0.46 +0.00    +0.002 A  ATOM     16  C   UNL     1      40.683  45.580  19.012 -0.46 +0.00    +0.002 A  BRANCH   9  17ATOM     17  O   UNL     1      40.622  49.805  14.994 -0.25 +0.19    -0.480 OA ATOM     18  H   UNL     1      39.906  50.373  15.333 -0.21 -0.22    +0.296 HD ENDBRANCH   9  17ENDBRANCH   3   8ENDBRANCH   1   2BRANCH   1  19ATOM     19  C   UNL     1      36.052  45.699  14.919 -0.36 +0.02    -0.034 A  ATOM     20  C   UNL     1      36.928  44.638  15.185 -0.36 -0.00    +0.006 A  ATOM     21  C   UNL     1      35.314  46.244  15.977 -0.30 -0.01    +0.006 A  ATOM     22  C   UNL     1      37.062  44.129  16.481 -0.34 -0.00    +0.011 A  ATOM     23  C   UNL     1      35.448  45.729  17.272 -0.35 -0.01    +0.011 A  ATOM     24  C   UNL     1      36.333  44.674  17.549 -0.32 -0.00    +0.002 A  BRANCH  24  25ATOM     25  C   UNL     1      36.466  44.156  18.921 -0.29 -0.02    +0.097 A  ATOM     26  N   UNL     1      37.639  44.495  19.528 -0.21 +0.02    -0.244 NA ATOM     27  C   UNL     1      35.494  43.396  19.593 -0.34 -0.01    +0.097 A  ATOM     28  C   UNL     1      37.817  44.105  20.801 -0.31 +0.00    +0.092 A  ATOM     29  N   UNL     1      35.676  43.010  20.888 -0.26 -0.01    -0.244 NA ATOM     30  C   UNL     1      38.990  44.443  21.458 -0.29 +0.00    +0.069 A  ATOM     31  C   UNL     1      36.828  43.359  21.486 -0.36 +0.00    +0.090 A  ATOM     32  C   UNL     1      39.197  44.053  22.774 -0.19 +0.01    +0.125 A  ATOM     33  C   UNL     1      37.055  42.978  22.803 -0.38 +0.00    +0.033 A  ATOM     34  C   UNL     1      38.238  43.320  23.457 -0.28 +0.00    +0.041 A  ATOM     35  F   UNL     1      40.334  44.389  23.393 -0.01 -0.01    -0.207 F  BRANCH  27  36ATOM     36  C   UNL     1      34.225  42.928  19.004 -0.39 -0.00    +0.003 A  ATOM     37  C   UNL     1      34.164  41.795  18.169 -0.39 -0.00    +0.013 A  ATOM     38  C   UNL     1      33.021  43.600  19.288 -0.42 -0.00    +0.013 A  ATOM     39  C   UNL     1      32.952  41.371  17.616 -0.35 -0.01    +0.040 A  ATOM     40  C   UNL     1      31.808  43.176  18.739 -0.30 -0.00    +0.040 A  ATOM     41  C   UNL     1      31.785  42.067  17.904 -0.24 -0.03    +0.123 A  ATOM     42  F   UNL     1      30.626  41.660  17.374 -0.04 +0.05    -0.207 F  ENDBRANCH  27  36ENDBRANCH  24  25ENDBRANCH   1  19TORSDOF 6TERENDMDL