MODEL        2USER    Run = 2USERUSER    Estimated Free Energy of Binding    =  -7.06 kcal/mol  [=(1)+(2)+(3)-(4)]USERUSER    (1) Final Intermolecular Energy     = -11.84 kcal/molUSER        vdW + Hbond + desolv Energy     = -11.50 kcal/molUSER        Electrostatic Energy            =  -0.60 kcal/molUSER        Moving Ligand-Fixed Receptor    = -12.10 kcal/molUSER        Moving Ligand-Moving Receptor   =  +0.26 kcal/molUSER    (2) Final Total Internal Energy     =  -2.44 kcal/molUSER    (3) Torsional Free Energy           =  +4.77 kcal/molUSER    (4) Unbound System's Energy         =  -2.44 kcal/molUSERUSERREMARK SMILES COc1ccc(O)c(C(=O)c2ccc(C(=O)N[C@@H]3CCCNC[C@H]3NC(=O)c3cnn(CC(F)(F)F)c3)cc2)c1FREMARK SMILES IDX 18 1 17 3 15 4 16 5 14 7 11 8 12 9 39 10 13 11 38 12 9 13REMARK SMILES IDX 10 14 8 15 3 16 4 17 40 18 5 19 6 20 41 21 2 22 1 23 7 24REMARK SMILES IDX 24 26 23 27 22 28 21 30 20 31 19 32 25 34 26 35 27 37 28 38REMARK SMILES IDX 29 39 37 40 30 41 31 42 32 43 33 44 34 45 35 46 36 47REMARK H PARENT 17 6 7 25 22 29 25 36REMARK Flexibility Score:  100.900USER                              x       y       z     vdW  Elec       q    TypeUSER                           _______ _______ _______ _____ _____    ______ ____ROOTATOM      1  C   UNL     1      34.242  44.998  17.999 -0.36 -0.05    +0.106 CG0ATOM      2  G   UNL     1      33.793  43.884  18.963 +0.00 +0.00    +0.000 G0 ENDROOTBRANCH   1   3ATOM      3  N   UNL     1      35.632  45.375  18.320 -0.14 +0.13    -0.347 N  ATOM      4  C   UNL     1      36.627  44.443  18.516 -0.23 -0.05    +0.251 C  ATOM      5  O   UNL     1      36.451  43.233  18.404 -0.16 +0.05    -0.269 OA ATOM      6  H   UNL     1      35.844  46.359  18.421 +0.10 -0.07    +0.164 HD BRANCH   4   7ATOM      7  C   UNL     1      37.964  44.975  18.876 -0.34 -0.00    +0.039 A  ATOM      8  C   UNL     1      40.463  46.047  19.522 -0.37 +0.00    +0.023 A  ATOM      9  C   UNL     1      39.699  46.626  18.501 -0.28 -0.00    +0.013 A  ATOM     10  C   UNL     1      40.000  44.903  20.183 -0.37 +0.00    +0.013 A  ATOM     11  C   UNL     1      38.451  46.087  18.179 -0.28 -0.00    +0.014 A  ATOM     12  C   UNL     1      38.748  44.369  19.866 -0.33 -0.00    +0.014 A  BRANCH   8  13ATOM     13  C   UNL     1      41.794  46.580  19.886 -0.34 +0.02    +0.199 C  ATOM     14  O   UNL     1      42.588  46.854  18.984 -0.40 -0.04    -0.288 OA BRANCH  13  15ATOM     15  C   UNL     1      42.205  46.835  21.284 -0.23 +0.02    +0.104 A  ATOM     16  C   UNL     1      41.695  47.049  23.661 -0.15 +0.02    +0.155 A  ATOM     17  C   UNL     1      43.039  47.324  23.922 -0.18 +0.01    +0.053 A  ATOM     18  C   UNL     1      41.292  46.799  22.340 -0.04 +0.02    +0.179 A  ATOM     19  C   UNL     1      43.967  47.332  22.877 -0.26 +0.01    +0.051 A  ATOM     20  C   UNL     1      43.554  47.076  21.573 -0.28 +0.05    +0.130 A  ATOM     21  F   UNL     1      40.005  46.492  22.109 -0.02 -0.02    -0.202 F  BRANCH  16  22ATOM     22  O   UNL     1      40.697  47.001  24.597 -0.01 -0.04    -0.494 OA ATOM     23  C   UNL     1      40.183  45.718  24.936 -0.06 +0.01    +0.278 C  ENDBRANCH  16  22BRANCH  20  24ATOM     24  O   UNL     1      44.533  47.075  20.615 -0.36 -0.56    -0.507 OA ATOM     25  H   UNL     1      44.306  47.761  19.946 -0.35 +0.11    +0.293 HD ENDBRANCH  20  24ENDBRANCH  13  15ENDBRANCH   8  13ENDBRANCH   4   7ENDBRANCH   1   3BRANCH   1  26ATOM     26  C   UNL     1      34.108  44.663  16.485 -0.29 -0.07    +0.118 C  BRANCH  26  27ATOM     27  C   UNL     1      32.647  44.718  15.973 -0.32 -0.06    +0.108 C  BRANCH  27  28ATOM     28  N   UNL     1      31.575  44.813  16.974 -0.51 +0.06    -0.315 NA ATOM     29  H   UNL     1      30.692  44.956  16.480 +0.08 -0.02    +0.122 HD BRANCH  28  30ATOM     30  C   UNL     1      31.473  43.635  17.827 -0.28 -0.01    +0.081 C  BRANCH  30  31ATOM     31  C   UNL     1      32.277  43.754  19.133 -0.44 -0.00    +0.017 C  BRANCH  31  32ATOM     32  C   UNL     1      33.793  43.885  18.963 -0.43 -0.01    +0.028 CG0ATOM     33  G   UNL     1      34.246  44.997  17.999 +0.00 +0.00    +0.000 G0 ENDBRANCH  31  32ENDBRANCH  30  31ENDBRANCH  28  30ENDBRANCH  27  28ENDBRANCH  26  27BRANCH  26  34ATOM     34  N   UNL     1      34.968  45.543  15.685 -0.11 +0.28    -0.346 N  ATOM     35  C   UNL     1      36.086  45.091  15.026 -0.24 -0.13    +0.254 C  ATOM     36  H   UNL     1      34.823  46.546  15.785 +0.04 -0.24    +0.164 HD ATOM     37  O   UNL     1      36.382  43.901  14.965 -0.30 +0.10    -0.269 OA BRANCH  35  38ATOM     38  C   UNL     1      36.910  46.118  14.414 -0.36 -0.04    +0.077 A  ATOM     39  C   UNL     1      36.809  46.600  13.089 -0.45 -0.06    +0.149 A  ATOM     40  C   UNL     1      37.960  46.846  14.946 -0.34 -0.05    +0.122 A  ATOM     41  N   UNL     1      37.710  47.548  12.809 -0.93 +0.03    -0.180 NA ATOM     42  N   UNL     1      38.422  47.651  13.944 -0.31 +0.08    -0.263 N  BRANCH  42  43ATOM     43  C   UNL     1      39.499  48.610  14.028 -0.07 -0.09    +0.259 C  BRANCH  43  44ATOM     44  C   UNL     1      40.099  48.650  15.406 -0.30 -0.13    +0.408 C  ATOM     45  F   UNL     1      40.698  47.463  15.681 -0.16 +0.02    -0.169 F  ATOM     46  F   UNL     1      39.188  48.865  16.376 -0.10 +0.09    -0.169 F  ATOM     47  F   UNL     1      41.057  49.598  15.512 -0.25 +0.04    -0.169 F  ENDBRANCH  43  44ENDBRANCH  42  43ENDBRANCH  35  38ENDBRANCH  26  34ENDBRANCH   1  26TORSDOF 10TERENDMDL