MODEL        5USER    Run = 5USERUSER    Estimated Free Energy of Binding    =  -7.89 kcal/mol  [=(1)+(2)+(3)-(4)]USERUSER    (1) Final Intermolecular Energy     = -12.07 kcal/molUSER        vdW + Hbond + desolv Energy     = -12.13 kcal/molUSER        Electrostatic Energy            =  -0.63 kcal/molUSER        Moving Ligand-Fixed Receptor    = -12.76 kcal/molUSER        Moving Ligand-Moving Receptor   =  +0.69 kcal/molUSER    (2) Final Total Internal Energy     =  -2.64 kcal/molUSER    (3) Torsional Free Energy           =  +4.18 kcal/molUSER    (4) Unbound System's Energy         =  -2.64 kcal/molUSERUSERREMARK SMILES COc1ccc(O)c(C(=O)c2ccc(C(=O)N[C@@H]3CCCNC[C@H]3NC(=O)c3cncc(Cl)c3)cc2)c1FREMARK SMILES IDX 15 1 16 2 17 3 14 5 11 6 12 7 36 8 13 9 35 10 9 11 10 12REMARK SMILES IDX 8 13 3 14 4 15 37 16 5 17 6 18 38 19 2 20 1 21 7 22 18 24REMARK SMILES IDX 19 25 24 27 23 28 22 29 21 31 20 32 25 34 26 35 27 37 28 38REMARK SMILES IDX 29 39 34 40 30 41 32 42 31 43 33 44REMARK H PARENT 17 4 7 23 22 30 25 36REMARK Flexibility Score:   88.900USER                              x       y       z     vdW  Elec       q    TypeUSER                           _______ _______ _______ _____ _____    ______ ____ROOTATOM      1  C   UNL     1      39.393  46.696  17.271 -0.33 -0.06    +0.251 C  ATOM      2  O   UNL     1      39.409  47.756  16.656 -0.34 +0.09    -0.269 OA ATOM      3  N   UNL     1      38.536  45.660  16.957 -0.15 +0.09    -0.347 N  ATOM      4  H   UNL     1      38.737  44.740  17.327 +0.11 -0.03    +0.164 HD ENDROOTBRANCH   1   5ATOM      5  C   UNL     1      40.344  46.461  18.394 -0.44 -0.00    +0.039 A  ATOM      6  C   UNL     1      42.079  45.925  20.531 -0.33 +0.00    +0.023 A  ATOM      7  C   UNL     1      42.458  46.821  19.525 -0.47 +0.00    +0.013 A  ATOM      8  C   UNL     1      40.823  45.310  20.480 -0.36 +0.00    +0.013 A  ATOM      9  C   UNL     1      41.600  47.080  18.451 -0.52 -0.00    +0.014 A  ATOM     10  C   UNL     1      39.965  45.570  19.408 -0.41 -0.00    +0.014 A  BRANCH   6  11ATOM     11  C   UNL     1      43.012  45.698  21.658 -0.19 +0.07    +0.199 C  ATOM     12  O   UNL     1      43.393  44.550  21.893 -0.15 -0.10    -0.288 OA BRANCH  11  13ATOM     13  C   UNL     1      43.556  46.795  22.489 -0.23 +0.03    +0.104 A  ATOM     14  C   UNL     1      43.257  48.798  23.849 -0.21 +0.05    +0.155 A  ATOM     15  C   UNL     1      44.638  48.865  24.047 -0.16 +0.01    +0.053 A  ATOM     16  C   UNL     1      42.728  47.755  23.074 -0.24 +0.03    +0.179 A  ATOM     17  C   UNL     1      45.473  47.891  23.493 -0.17 +0.02    +0.051 A  ATOM     18  C   UNL     1      44.932  46.856  22.733 -0.18 +0.07    +0.130 A  ATOM     19  F   UNL     1      41.395  47.678  22.922 -0.06 -0.03    -0.202 F  BRANCH  14  20ATOM     20  O   UNL     1      42.339  49.679  24.353 -0.53 -0.18    -0.494 OA ATOM     21  C   UNL     1      41.626  49.284  25.518 -0.22 +0.04    +0.278 C  ENDBRANCH  14  20BRANCH  18  22ATOM     22  O   UNL     1      45.816  45.924  22.257 -0.36 -0.63    -0.507 OA ATOM     23  H   UNL     1      45.430  45.032  22.418 +0.09 +0.24    +0.293 HD ENDBRANCH  18  22ENDBRANCH  11  13ENDBRANCH   6  11ENDBRANCH   1   5BRANCH   3  24ATOM     24  C   UNL     1      37.633  45.746  15.806 -0.35 -0.04    +0.106 C  BRANCH  24  25ATOM     25  C   UNL     1      38.422  45.564  14.504 -0.43 -0.01    +0.028 CG0ATOM     26  G   UNL     1      37.600  45.332  13.235 +0.00 +0.00    +0.000 G0 ENDBRANCH  24  25BRANCH  24  27ATOM     27  C   UNL     1      36.707  46.996  15.856 -0.37 -0.09    +0.118 C  BRANCH  27  28ATOM     28  C   UNL     1      36.946  47.938  14.645 -0.47 -0.08    +0.108 C  BRANCH  28  29ATOM     29  N   UNL     1      36.412  47.559  13.337 -0.37 +0.17    -0.315 NA ATOM     30  H   UNL     1      35.467  47.194  13.477 +0.07 -0.09    +0.122 HD BRANCH  29  31ATOM     31  C   UNL     1      37.177  46.615  12.540 -0.60 -0.03    +0.081 C  BRANCH  31  32ATOM     32  C   UNL     1      37.598  45.323  13.235 -0.41 -0.01    +0.017 CG0ATOM     33  G   UNL     1      38.418  45.564  14.504 +0.00 +0.00    +0.000 G0 ENDBRANCH  31  32ENDBRANCH  29  31ENDBRANCH  28  29ENDBRANCH  27  28BRANCH  27  34ATOM     34  N   UNL     1      35.295  46.606  16.041 -0.03 +0.43    -0.346 N  ATOM     35  C   UNL     1      34.659  45.742  15.175 -0.20 -0.23    +0.253 C  ATOM     36  H   UNL     1      34.711  47.293  16.499 -0.13 -0.41    +0.164 HD ATOM     37  O   UNL     1      35.218  45.149  14.261 -0.14 +0.15    -0.269 OA BRANCH  35  38ATOM     38  C   UNL     1      33.203  45.562  15.372 -0.19 -0.06    +0.059 A  ATOM     39  C   UNL     1      32.678  44.977  16.517 -0.24 -0.07    +0.124 A  ATOM     40  C   UNL     1      32.317  45.954  14.365 -0.32 -0.03    +0.037 A  ATOM     41  N   UNL     1      31.351  44.796  16.734 -0.60 +0.06    -0.262 NA ATOM     42  C   UNL     1      30.951  45.775  14.556 -0.48 -0.04    +0.060 A  ATOM     43  C   UNL     1      30.517  45.204  15.744 -0.29 -0.05    +0.131 A  ATOM     44  Cl  UNL     1      29.829  46.258  13.350 -0.71 +0.06    -0.083 Cl ENDBRANCH  35  38ENDBRANCH  27  34ENDBRANCH  24  27ENDBRANCH   3  24TORSDOF 8TERENDMDL