REMARK SMILES O=C(c1cc(-c2ccc(CN3CCC(n4c(O)nc5ccccc54)CC3)cc2)n(-c2ccc(F)cc2)n1)N1CC(O)C1
REMARK SMILES IDX 6 1 7 2 8 3 9 4 27 5 28 6 5 7 3 8 4 9 37 10 29 11 2 12 38 13
REMARK SMILES IDX 39 14 42 15 40 16 1 17 41 18 30 20 31 21 36 22 32 23 35 24
REMARK SMILES IDX 33 25 34 26 10 27 11 28 12 29 26 30 13 31 25 32 14 33 15 34
REMARK SMILES IDX 16 35 24 36 18 37 23 38 19 39 22 40 20 41 21 42 17 43
REMARK H PARENT 41 19 17 44
ROOT
ATOM      1  C   UNL     1      -1.974   0.815  -0.109  1.00  0.00     0.000 A 
ATOM      2  C   UNL     1      -1.618   0.752  -1.461  1.00  0.00     0.011 A 
ATOM      3  C   UNL     1      -0.279   0.851  -1.847  1.00  0.00     0.006 A 
ATOM      4  C   UNL     1       0.726   1.047  -0.889  1.00  0.00    -0.034 A 
ATOM      5  C   UNL     1       0.366   1.132   0.462  1.00  0.00     0.006 A 
ATOM      6  C   UNL     1      -0.971   1.015   0.848  1.00  0.00     0.011 A 
ENDROOT
BRANCH   1   7
ATOM      7  C   UNL     1      -3.373   0.733   0.305  1.00  0.00     0.075 A 
ATOM      8  C   UNL     1      -5.425   1.268   1.032  1.00  0.00     0.151 A 
ATOM      9  C   UNL     1      -4.071   1.671   1.042  1.00  0.00     0.065 A 
ATOM     10  N   UNL     1      -5.569   0.128   0.339  1.00  0.00    -0.162 NA
ATOM     11  N   UNL     1      -4.305  -0.260  -0.002  1.00  0.00    -0.232 N 
BRANCH   8  12
ATOM     12  C   UNL     1      -6.529   1.996   1.685  1.00  0.00     0.274 C 
ATOM     13  N   UNL     1      -7.818   1.562   1.450  1.00  0.00    -0.332 N 
ATOM     14  C   UNL     1      -8.392   0.953   0.259  1.00  0.00     0.153 C 
ATOM     15  C   UNL     1      -9.037   2.274   1.814  1.00  0.00     0.153 C 
ATOM     16  C   UNL     1      -9.599   1.895   0.437  1.00  0.00     0.153 C 
ATOM     17  O   UNL     1      -6.303   2.958   2.418  1.00  0.00    -0.267 OA
BRANCH  16  18
ATOM     18  O   UNL     1     -10.914   1.299   0.402  1.00  0.00    -0.389 OA
ATOM     19  H   UNL     1     -10.876   0.548   1.020  1.00  0.00     0.211 HD
ENDBRANCH  16  18
ENDBRANCH   8  12
BRANCH  11  20
ATOM     20  C   UNL     1      -4.123  -1.565  -0.563  1.00  0.00     0.065 A 
ATOM     21  C   UNL     1      -2.871  -2.197  -0.593  1.00  0.00     0.031 A 
ATOM     22  C   UNL     1      -5.246  -2.255  -1.059  1.00  0.00     0.031 A 
ATOM     23  C   UNL     1      -2.741  -3.478  -1.140  1.00  0.00     0.041 A 
ATOM     24  C   UNL     1      -5.110  -3.535  -1.605  1.00  0.00     0.041 A 
ATOM     25  C   UNL     1      -3.857  -4.133  -1.644  1.00  0.00     0.123 A 
ATOM     26  F   UNL     1      -3.725  -5.360  -2.163  1.00  0.00    -0.207 F 
ENDBRANCH  11  20
ENDBRANCH   1   7
BRANCH   4  27
ATOM     27  C   UNL     1       2.175   1.151  -1.315  1.00  0.00     0.120 C 
BRANCH  27  28
ATOM     28  N   UNL     1       2.770  -0.144  -1.681  1.00  0.00    -0.299 NA
ATOM     29  C   UNL     1       2.886  -1.087  -0.563  1.00  0.00     0.087 C 
ATOM     30  C   UNL     1       4.038   0.021  -2.411  1.00  0.00     0.087 C 
ATOM     31  C   UNL     1       3.952  -0.695   0.462  1.00  0.00     0.041 C 
ATOM     32  C   UNL     1       5.272  -0.550  -1.705  1.00  0.00     0.041 C 
ATOM     33  C   UNL     1       5.241  -0.197  -0.214  1.00  0.00     0.095 C 
BRANCH  33  34
ATOM     34  N   UNL     1       6.446  -0.615   0.485  1.00  0.00    -0.291 N 
ATOM     35  C   UNL     1       6.905  -1.896   0.618  1.00  0.00     0.295 A 
ATOM     36  C   UNL     1       7.363   0.206   1.107  1.00  0.00     0.072 A 
ATOM     37  N   UNL     1       8.046  -1.973   1.247  1.00  0.00    -0.195 NA
ATOM     38  C   UNL     1       7.439   1.589   1.318  1.00  0.00     0.029 A 
ATOM     39  C   UNL     1       8.351  -0.672   1.561  1.00  0.00     0.092 A 
ATOM     40  C   UNL     1       8.556   2.074   2.009  1.00  0.00     0.002 A 
ATOM     41  C   UNL     1       9.467  -0.165   2.246  1.00  0.00     0.031 A 
ATOM     42  C   UNL     1       9.557   1.214   2.464  1.00  0.00     0.002 A 
BRANCH  35  43
ATOM     43  O   UNL     1       6.285  -2.967   0.169  1.00  0.00    -0.480 OA
ATOM     44  H   UNL     1       6.905  -3.670   0.435  1.00  0.00     0.296 HD
ENDBRANCH  35  43
ENDBRANCH  33  34
ENDBRANCH  27  28
ENDBRANCH   4  27
TORSDOF 8
