MODEL        4USER    Run = 4USERUSER    Estimated Free Energy of Binding    = -11.57 kcal/mol  [=(1)+(2)+(3)-(4)]USERUSER    (1) Final Intermolecular Energy     = -13.66 kcal/molUSER        vdW + Hbond + desolv Energy     = -13.28 kcal/molUSER        Electrostatic Energy            =  -0.38 kcal/molUSER        Moving Ligand-Fixed Receptor    = -13.66 kcal/molUSER        Moving Ligand-Moving Receptor   =  +0.00 kcal/molUSER    (2) Final Total Internal Energy     =  -0.83 kcal/molUSER    (3) Torsional Free Energy           =  +2.09 kcal/molUSER    (4) Unbound System's Energy         =  -0.83 kcal/molUSERUSERREMARK SMILES CN1CCN(c2ncc(O)c(-c3ccc(CN4CCC(n5c(O)nc6ccccc65)CC4)cc3)c2F)CC1REMARK SMILES IDX 16 1 15 2 12 3 13 4 34 5 14 6 33 7 11 8 6 9 7 10 35 11 8 12REMARK SMILES IDX 9 13 36 14 5 15 2 16 3 17 38 18 4 19 37 20 1 21 10 22 17 24REMARK SMILES IDX 18 25 32 26 19 27 31 28 20 29 21 30 22 31 30 32 24 33 29 34REMARK SMILES IDX 25 35 28 36 26 37 27 38 23 39REMARK H PARENT 10 23 23 40USER                              x       y       z     vdW  Elec       q    TypeUSER                           _______ _______ _______ _____ _____    ______ ____ROOTATOM      1  C   UNL     1      42.063  45.711  21.777 -0.25 +0.02    +0.120 C  ENDROOTBRANCH   1   2ATOM      2  C   UNL     1      41.664  46.239  20.415 -0.36 -0.00    -0.034 A  ATOM      3  C   UNL     1      40.923  47.212  17.860 -0.51 +0.00    -0.011 A  ATOM      4  C   UNL     1      40.052  46.399  18.599 -0.41 -0.00    +0.009 A  ATOM      5  C   UNL     1      42.171  47.528  18.414 -0.52 -0.00    +0.009 A  ATOM      6  C   UNL     1      40.418  45.915  19.859 -0.36 +0.00    +0.006 A  ATOM      7  C   UNL     1      42.538  47.045  19.673 -0.49 +0.00    +0.006 A  BRANCH   3   8ATOM      8  C   UNL     1      40.542  47.715  16.535 -0.49 -0.01    +0.065 A  ATOM      9  C   UNL     1      39.352  47.408  14.413 -0.31 -0.04    +0.165 A  ATOM     10  N   UNL     1      39.781  48.619  13.981 -0.20 +0.07    -0.232 NA ATOM     11  C   UNL     1      39.731  46.943  15.688 -0.34 -0.04    +0.177 A  ATOM     12  C   UNL     1      40.565  49.358  14.798 -0.37 -0.05    +0.160 A  ATOM     13  C   UNL     1      40.964  48.958  16.063 -0.48 -0.02    +0.144 A  ATOM     14  F   UNL     1      39.325  45.732  16.113 -0.07 +0.04    -0.202 F  BRANCH   9  15ATOM     15  N   UNL     1      38.554  46.632  13.554 -0.12 +0.08    -0.352 N  ATOM     16  N   UNL     1      35.589  46.169  13.417 -0.26 +0.18    -0.303 NA ATOM     17  C   UNL     1      36.580  45.076  13.521 -0.41 -0.04    +0.105 C  ATOM     18  C   UNL     1      36.250  47.483  13.213 -0.58 -0.06    +0.105 C  ATOM     19  C   UNL     1      37.921  45.456  14.195 -0.36 -0.04    +0.133 C  ATOM     20  C   UNL     1      37.674  47.374  12.628 -0.42 -0.02    +0.133 C  ATOM     21  C   UNL     1      34.705  46.216  14.579 -0.31 -0.10    +0.105 C  ENDBRANCH   9  15BRANCH  13  22ATOM     22  O   UNL     1      41.755  49.754  16.843 -0.74 -0.08    -0.506 OA ATOM     23  H   UNL     1      41.492  50.683  16.741 -0.30 -0.07    +0.293 HD ENDBRANCH  13  22ENDBRANCH   3   8ENDBRANCH   1   2BRANCH   1  24ATOM     24  N   UNL     1      40.973  45.427  22.720 -0.07 -0.02    -0.299 NA ATOM     25  C   UNL     1      41.190  45.964  24.064 -0.14 +0.01    +0.087 C  ATOM     26  C   UNL     1      40.502  44.048  22.717 -0.23 +0.00    +0.087 C  ATOM     27  C   UNL     1      40.246  45.364  25.114 -0.13 +0.00    +0.041 C  ATOM     28  C   UNL     1      39.094  43.985  23.317 -0.27 +0.00    +0.041 C  ATOM     29  C   UNL     1      38.907  44.970  24.484 -0.20 +0.00    +0.095 C  BRANCH  29  30ATOM     30  N   UNL     1      37.931  44.509  25.461 -0.11 -0.00    -0.291 N  ATOM     31  C   UNL     1      36.901  45.260  25.958 -0.15 -0.02    +0.295 A  ATOM     32  C   UNL     1      37.848  43.271  26.066 -0.23 -0.00    +0.072 A  ATOM     33  N   UNL     1      36.166  44.625  26.829 -0.25 +0.04    -0.195 NA ATOM     34  C   UNL     1      38.596  42.089  25.968 -0.24 -0.00    +0.029 A  ATOM     35  C   UNL     1      36.741  43.381  26.912 -0.32 -0.01    +0.092 A  ATOM     36  C   UNL     1      38.200  41.007  26.763 -0.36 -0.00    +0.002 A  ATOM     37  C   UNL     1      36.359  42.283  27.700 -0.40 -0.01    +0.031 A  ATOM     38  C   UNL     1      37.101  41.100  27.617 -0.51 -0.00    +0.002 A  BRANCH  31  39ATOM     39  O   UNL     1      36.646  46.506  25.612 -0.65 -0.00    -0.480 OA ATOM     40  H   UNL     1      35.832  46.681  26.117 -0.38 -0.17    +0.296 HD ENDBRANCH  31  39ENDBRANCH  29  30ENDBRANCH   1  24TORSDOF 7TERENDMDL