MODEL        7USER    Run = 7USERUSER    Estimated Free Energy of Binding    = -12.11 kcal/mol  [=(1)+(2)+(3)-(4)]USERUSER    (1) Final Intermolecular Energy     = -14.19 kcal/molUSER        vdW + Hbond + desolv Energy     = -13.88 kcal/molUSER        Electrostatic Energy            =  -0.31 kcal/molUSER        Moving Ligand-Fixed Receptor    = -14.19 kcal/molUSER        Moving Ligand-Moving Receptor   =  +0.00 kcal/molUSER    (2) Final Total Internal Energy     =  -1.56 kcal/molUSER    (3) Torsional Free Energy           =  +2.09 kcal/molUSER    (4) Unbound System's Energy         =  -1.56 kcal/molUSERUSERREMARK SMILES CS(=O)(=O)N1CCN(c2cc(-c3ccc(CN4CCC(n5c(O)nc6ccccc65)CC4)cc3)ncn2)CC1REMARK SMILES IDX 12 1 13 2 14 3 15 4 33 5 34 6 11 7 9 8 10 9 37 10 36 11REMARK SMILES IDX 35 12 8 13 5 14 6 15 39 16 7 17 38 18 2 19 1 20 3 21 4 22REMARK SMILES IDX 16 23 17 24 18 25 32 26 19 27 31 28 20 29 21 30 22 31 30 32REMARK SMILES IDX 24 33 29 34 25 35 28 36 26 37 27 38 23 39REMARK H PARENT 23 40USER                              x       y       z     vdW  Elec       q    TypeUSER                           _______ _______ _______ _____ _____    ______ ____ROOTATOM      1  C   UNL     1      31.913  41.143  18.301 -0.38 -0.00    +0.000 A  ATOM      2  C   UNL     1      33.207  40.817  17.853 -0.31 -0.00    +0.011 A  ATOM      3  C   UNL     1      34.019  41.750  17.200 -0.34 -0.00    +0.006 A  ATOM      4  C   UNL     1      33.567  43.054  16.978 -0.33 +0.01    -0.034 A  ATOM      5  C   UNL     1      32.279  43.394  17.411 -0.30 -0.00    +0.006 A  ATOM      6  C   UNL     1      31.472  42.458  18.070 -0.29 -0.00    +0.011 A  ENDROOTBRANCH   1   7ATOM      7  C   UNL     1      31.072  40.133  18.985 -0.27 +0.00    +0.076 A  ATOM      8  C   UNL     1      29.055  38.913  19.340 -0.22 +0.02    +0.132 A  ATOM      9  C   UNL     1      29.754  39.882  18.635 -0.21 +0.01    +0.076 A  ATOM     10  N   UNL     1      29.641  38.249  20.349 -0.19 -0.02    -0.219 NA ATOM     11  C   UNL     1      30.918  38.549  20.617 -0.29 +0.03    +0.224 A  ATOM     12  N   UNL     1      31.671  39.452  19.982 -0.70 -0.05    -0.236 NA BRANCH   8  13ATOM     13  N   UNL     1      27.709  38.647  19.022 -0.09 -0.05    -0.354 N  ATOM     14  N   UNL     1      25.218  40.187  19.627 -0.16 +0.05    -0.199 NA ATOM     15  C   UNL     1      26.346  40.715  18.771 -0.21 -0.01    +0.123 C  ATOM     16  C   UNL     1      25.388  38.728  19.963 -0.27 -0.07    +0.123 C  ATOM     17  C   UNL     1      27.098  39.582  18.052 -0.22 +0.02    +0.135 C  ATOM     18  C   UNL     1      26.863  38.361  20.210 -0.25 -0.04    +0.135 C  BRANCH  14  19ATOM     19  S   UNL     1      24.805  41.146  20.970 -0.51 -0.05    +0.211 S  ATOM     20  C   UNL     1      25.319  42.771  20.451 -0.40 -0.06    +0.176 C  ATOM     21  O   UNL     1      23.360  41.148  21.073 -0.47 +0.04    -0.213 OA ATOM     22  O   UNL     1      25.625  40.722  22.083 -0.98 +0.00    -0.213 OA ENDBRANCH  14  19ENDBRANCH   8  13ENDBRANCH   1   7BRANCH   4  23ATOM     23  C   UNL     1      34.433  44.054  16.238 -0.31 -0.06    +0.120 C  BRANCH  23  24ATOM     24  N   UNL     1      35.565  44.560  17.032 -0.10 +0.13    -0.299 NA ATOM     25  C   UNL     1      35.503  46.007  17.240 -0.36 -0.06    +0.087 C  ATOM     26  C   UNL     1      36.876  44.147  16.519 -0.35 -0.03    +0.087 C  ATOM     27  C   UNL     1      35.806  46.830  15.993 -0.28 -0.05    +0.041 C  ATOM     28  C   UNL     1      37.314  44.862  15.244 -0.38 -0.01    +0.041 C  ATOM     29  C   UNL     1      37.051  46.375  15.222 -0.38 -0.05    +0.095 C  BRANCH  29  30ATOM     30  N   UNL     1      38.229  47.214  15.442 -0.21 +0.13    -0.291 N  ATOM     31  C   UNL     1      38.581  48.272  14.624 -0.28 -0.14    +0.295 A  ATOM     32  C   UNL     1      39.214  47.115  16.406 -0.41 -0.02    +0.072 A  ATOM     33  N   UNL     1      39.730  48.796  14.944 -0.39 +0.08    -0.195 NA ATOM     34  C   UNL     1      39.428  46.302  17.526 -0.43 -0.01    +0.029 A  ATOM     35  C   UNL     1      40.138  48.104  16.049 -0.48 -0.02    +0.092 A  ATOM     36  C   UNL     1      40.596  46.499  18.274 -0.49 -0.00    +0.002 A  ATOM     37  C   UNL     1      41.306  48.286  16.809 -0.44 -0.00    +0.031 A  ATOM     38  C   UNL     1      41.525  47.473  17.923 -0.50 -0.00    +0.002 A  BRANCH  31  39ATOM     39  O   UNL     1      37.863  48.728  13.612 -0.38 +0.19    -0.480 OA ATOM     40  H   UNL     1      37.685  49.664  13.792 -0.31 -0.20    +0.296 HD ENDBRANCH  31  39ENDBRANCH  29  30ENDBRANCH  23  24ENDBRANCH   4  23TORSDOF 7TERENDMDL