MODEL        5USER    Run = 5USERUSER    Estimated Free Energy of Binding    = -12.64 kcal/mol  [=(1)+(2)+(3)-(4)]USERUSER    (1) Final Intermolecular Energy     = -15.02 kcal/molUSER        vdW + Hbond + desolv Energy     = -14.84 kcal/molUSER        Electrostatic Energy            =  -0.18 kcal/molUSER        Moving Ligand-Fixed Receptor    = -15.02 kcal/molUSER        Moving Ligand-Moving Receptor   =  +0.00 kcal/molUSER    (2) Final Total Internal Energy     =  -2.68 kcal/molUSER    (3) Torsional Free Energy           =  +2.39 kcal/molUSER    (4) Unbound System's Energy         =  -2.68 kcal/molUSERUSERREMARK SMILES O=C(c1cc(-c2ccc(CN3CCC(n4c(O)nc5ccccc54)CC3)cc2)n(-c2ccc(F)cc2)n1)N1CC(O)C1REMARK SMILES IDX 6 1 7 2 8 3 9 4 27 5 28 6 5 7 3 8 4 9 37 10 29 11 2 12 38 13REMARK SMILES IDX 39 14 42 15 40 16 1 17 41 18 30 20 31 21 36 22 32 23 35 24REMARK SMILES IDX 33 25 34 26 10 27 11 28 12 29 26 30 13 31 25 32 14 33 15 34REMARK SMILES IDX 16 35 24 36 18 37 23 38 19 39 22 40 20 41 21 42 17 43REMARK H PARENT 41 19 17 44USER                              x       y       z     vdW  Elec       q    TypeUSER                           _______ _______ _______ _____ _____    ______ ____ROOTATOM      1  C   UNL     1      36.369  44.726  17.427 -0.33 -0.00    +0.000 A  ATOM      2  C   UNL     1      35.352  45.612  17.053 -0.34 -0.01    +0.011 A  ATOM      3  C   UNL     1      35.262  46.074  15.738 -0.31 -0.01    +0.006 A  ATOM      4  C   UNL     1      36.208  45.684  14.779 -0.36 +0.02    -0.034 A  ATOM      5  C   UNL     1      37.239  44.815  15.160 -0.35 -0.00    +0.006 A  ATOM      6  C   UNL     1      37.317  44.340  16.470 -0.34 -0.00    +0.011 A  ENDROOTBRANCH   1   7ATOM      7  C   UNL     1      36.486  44.252  18.804 -0.30 -0.01    +0.075 A  ATOM      8  C   UNL     1      37.177  43.960  20.916 -0.30 +0.00    +0.151 A  ATOM      9  C   UNL     1      37.584  44.385  19.632 -0.32 -0.00    +0.065 A  ATOM     10  N   UNL     1      35.895  43.565  20.894 -0.31 -0.01    -0.162 NA ATOM     11  N   UNL     1      35.510  43.630  19.585 -0.25 +0.03    -0.232 N  BRANCH   8  12ATOM     12  C   UNL     1      38.034  43.955  22.117 -0.24 +0.01    +0.274 C  ATOM     13  N   UNL     1      37.808  42.980  23.068 -0.16 -0.02    -0.332 N  ATOM     14  C   UNL     1      36.563  42.338  23.464 -0.36 +0.01    +0.153 C  ATOM     15  C   UNL     1      38.387  42.944  24.405 -0.24 +0.01    +0.153 C  ATOM     16  C   UNL     1      37.004  42.531  24.928 -0.34 -0.00    +0.153 C  ATOM     17  O   UNL     1      38.923  44.792  22.260 -0.20 -0.01    -0.267 OA BRANCH  16  18ATOM     18  O   UNL     1      36.944  41.378  25.795 -0.15 +0.09    -0.389 OA ATOM     19  H   UNL     1      36.160  40.877  25.509 -0.20 -0.11    +0.211 HD ENDBRANCH  16  18ENDBRANCH   8  12BRANCH  11  20ATOM     20  C   UNL     1      34.250  43.056  19.218 -0.36 -0.01    +0.065 A  ATOM     21  C   UNL     1      34.153  41.805  18.592 -0.33 -0.01    +0.031 A  ATOM     22  C   UNL     1      33.068  43.751  19.538 -0.42 -0.00    +0.031 A  ATOM     23  C   UNL     1      32.901  41.277  18.261 -0.38 -0.01    +0.041 A  ATOM     24  C   UNL     1      31.818  43.219  19.204 -0.28 -0.00    +0.041 A  ATOM     25  C   UNL     1      31.747  41.988  18.565 -0.23 -0.01    +0.123 A  ATOM     26  F   UNL     1      30.552  41.474  18.249 -0.02 +0.02    -0.207 F  ENDBRANCH  11  20ENDBRANCH   1   7BRANCH   4  27ATOM     27  C   UNL     1      36.102  46.188  13.356 -0.49 -0.06    +0.120 C  BRANCH  27  28ATOM     28  N   UNL     1      36.772  47.481  13.143 -0.47 +0.13    -0.299 NA ATOM     29  C   UNL     1      38.185  47.369  12.766 -0.09 -0.01    +0.087 C  ATOM     30  C   UNL     1      36.563  48.400  14.274 -0.29 -0.07    +0.087 C  ATOM     31  C   UNL     1      39.088  46.897  13.907 -0.31 -0.01    +0.041 C  ATOM     32  C   UNL     1      37.836  48.804  15.025 -0.54 -0.03    +0.041 C  ATOM     33  C   UNL     1      38.737  47.583  15.238 -0.48 -0.04    +0.095 C  BRANCH  33  34ATOM     34  N   UNL     1      39.907  47.886  16.047 -0.29 +0.08    -0.291 N  ATOM     35  C   UNL     1      40.742  48.958  15.899 -0.35 -0.06    +0.295 A  ATOM     36  C   UNL     1      40.365  47.168  17.132 -0.46 -0.01    +0.072 A  ATOM     37  N   UNL     1      41.681  49.011  16.804 -0.90 -0.03    -0.195 NA ATOM     38  C   UNL     1      39.950  45.984  17.756 -0.44 -0.00    +0.029 A  ATOM     39  C   UNL     1      41.464  47.903  17.585 -0.42 -0.01    +0.092 A  ATOM     40  C   UNL     1      40.682  45.553  18.869 -0.46 +0.00    +0.002 A  ATOM     41  C   UNL     1      42.181  47.457  18.707 -0.52 +0.00    +0.031 A  ATOM     42  C   UNL     1      41.778  46.277  19.341 -0.47 +0.00    +0.002 A  BRANCH  35  43ATOM     43  O   UNL     1      40.638  49.866  14.951 -0.24 +0.20    -0.480 OA ATOM     44  H   UNL     1      39.913  50.418  15.296 -0.21 -0.23    +0.296 HD ENDBRANCH  35  43ENDBRANCH  33  34ENDBRANCH  27  28ENDBRANCH   4  27TORSDOF 8TERENDMDL