REMARK SMILES CS(=O)(=O)N1CCN(c2cc(-c3ccc(CN4CCC(n5c(O)nc6ccccc65)CC4)cc3)ncn2)CC1
REMARK SMILES IDX 12 1 13 2 14 3 15 4 33 5 34 6 11 7 9 8 10 9 37 10 36 11
REMARK SMILES IDX 35 12 8 13 5 14 6 15 39 16 7 17 38 18 2 19 1 20 3 21 4 22
REMARK SMILES IDX 16 23 17 24 18 25 32 26 19 27 31 28 20 29 21 30 22 31 30 32
REMARK SMILES IDX 24 33 29 34 25 35 28 36 26 37 27 38 23 39
REMARK H PARENT 23 40
ROOT
ATOM      1  C   UNL     1       1.439   0.649  -0.240  1.00  0.00     0.000 A 
ATOM      2  C   UNL     1       0.766   1.460  -1.173  1.00  0.00     0.011 A 
ATOM      3  C   UNL     1      -0.509   1.135  -1.650  1.00  0.00     0.006 A 
ATOM      4  C   UNL     1      -1.164  -0.015  -1.200  1.00  0.00    -0.034 A 
ATOM      5  C   UNL     1      -0.506  -0.837  -0.277  1.00  0.00     0.006 A 
ATOM      6  C   UNL     1       0.767  -0.504   0.202  1.00  0.00     0.011 A 
ENDROOT
BRANCH   1   7
ATOM      7  C   UNL     1       2.791   1.015   0.243  1.00  0.00     0.076 A 
ATOM      8  C   UNL     1       4.955   0.530   1.116  1.00  0.00     0.132 A 
ATOM      9  C   UNL     1       3.716   0.081   0.684  1.00  0.00     0.076 A 
ATOM     10  N   UNL     1       5.241   1.842   1.122  1.00  0.00    -0.219 NA
ATOM     11  C   UNL     1       4.293   2.675   0.674  1.00  0.00     0.224 A 
ATOM     12  N   UNL     1       3.082   2.331   0.226  1.00  0.00    -0.236 NA
BRANCH   8  13
ATOM     13  N   UNL     1       5.911  -0.391   1.587  1.00  0.00    -0.354 N 
ATOM     14  N   UNL     1       8.652  -1.045   0.584  1.00  0.00    -0.199 NA
ATOM     15  C   UNL     1       8.251   0.313   1.110  1.00  0.00     0.123 C 
ATOM     16  C   UNL     1       7.588  -2.087   0.818  1.00  0.00     0.123 C 
ATOM     17  C   UNL     1       7.133   0.214   2.162  1.00  0.00     0.135 C 
ATOM     18  C   UNL     1       6.170  -1.512   0.646  1.00  0.00     0.135 C 
BRANCH  14  19
ATOM     19  S   UNL     1       9.280  -1.064  -0.997  1.00  0.00     0.211 S 
ATOM     20  C   UNL     1      10.718  -0.023  -0.849  1.00  0.00     0.176 C 
ATOM     21  O   UNL     1       9.732  -2.413  -1.267  1.00  0.00    -0.213 OA
ATOM     22  O   UNL     1       8.316  -0.420  -1.862  1.00  0.00    -0.213 OA
ENDBRANCH  14  19
ENDBRANCH   8  13
ENDBRANCH   1   7
BRANCH   4  23
ATOM     23  C   UNL     1      -2.529  -0.386  -1.744  1.00  0.00     0.120 C 
BRANCH  23  24
ATOM     24  N   UNL     1      -3.477  -0.836  -0.711  1.00  0.00    -0.299 NA
ATOM     25  C   UNL     1      -4.632  -1.534  -1.276  1.00  0.00     0.087 C 
ATOM     26  C   UNL     1      -3.890   0.225   0.213  1.00  0.00     0.087 C 
ATOM     27  C   UNL     1      -5.615  -0.625  -2.005  1.00  0.00     0.041 C 
ATOM     28  C   UNL     1      -4.858   1.245  -0.380  1.00  0.00     0.041 C 
ATOM     29  C   UNL     1      -5.985   0.651  -1.238  1.00  0.00     0.095 C 
BRANCH  29  30
ATOM     30  N   UNL     1      -7.297   0.600  -0.593  1.00  0.00    -0.291 N 
ATOM     31  C   UNL     1      -8.393   1.324  -1.024  1.00  0.00     0.295 A 
ATOM     32  C   UNL     1      -7.696  -0.083   0.540  1.00  0.00     0.072 A 
ATOM     33  N   UNL     1      -9.417   1.214  -0.226  1.00  0.00    -0.195 NA
ATOM     34  C   UNL     1      -7.092  -0.999   1.411  1.00  0.00     0.029 A 
ATOM     35  C   UNL     1      -9.014   0.341   0.745  1.00  0.00     0.092 A 
ATOM     36  C   UNL     1      -7.839  -1.471   2.498  1.00  0.00     0.002 A 
ATOM     37  C   UNL     1      -9.748  -0.141   1.842  1.00  0.00     0.031 A 
ATOM     38  C   UNL     1      -9.147  -1.049   2.715  1.00  0.00     0.002 A 
BRANCH  31  39
ATOM     39  O   UNL     1      -8.437   2.066  -2.118  1.00  0.00    -0.480 OA
ATOM     40  H   UNL     1      -8.114   1.514  -2.846  1.00  0.00     0.296 HD
ENDBRANCH  31  39
ENDBRANCH  29  30
ENDBRANCH  23  24
ENDBRANCH   4  23
TORSDOF 7
