REMARK SMILES CN1CCN(c2ncc(O)c(-c3ccc(CN4CCC(n5c(O)nc6ccccc65)CC4)cc3)c2F)CC1
REMARK SMILES IDX 16 1 15 2 12 3 13 4 34 5 14 6 33 7 11 8 6 9 7 10 35 11 8 12
REMARK SMILES IDX 9 13 36 14 5 15 2 16 3 17 38 18 4 19 37 20 1 21 10 22 17 24
REMARK SMILES IDX 18 25 32 26 19 27 31 28 20 29 21 30 22 31 30 32 24 33 29 34
REMARK SMILES IDX 25 35 28 36 26 37 27 38 23 39
REMARK H PARENT 10 23 23 40
ROOT
ATOM      1  C   UNL     1      -1.783  -3.100  -0.051  1.00  0.00     0.120 C 
ENDROOT
BRANCH   1   2
ATOM      2  C   UNL     1      -0.596  -2.177   0.133  1.00  0.00    -0.034 A 
ATOM      3  C   UNL     1       1.634  -0.465   0.476  1.00  0.00    -0.011 A 
ATOM      4  C   UNL     1       1.248  -0.893  -0.802  1.00  0.00     0.009 A 
ATOM      5  C   UNL     1       0.894  -0.909   1.580  1.00  0.00     0.009 A 
ATOM      6  C   UNL     1       0.149  -1.741  -0.972  1.00  0.00     0.006 A 
ATOM      7  C   UNL     1      -0.205  -1.757   1.411  1.00  0.00     0.006 A 
BRANCH   3   8
ATOM      8  C   UNL     1       2.791   0.420   0.656  1.00  0.00     0.065 A 
ATOM      9  C   UNL     1       5.213   0.720   0.902  1.00  0.00     0.165 A 
ATOM     10  N   UNL     1       5.050   2.062   1.007  1.00  0.00    -0.232 NA
ATOM     11  C   UNL     1       4.088  -0.112   0.731  1.00  0.00     0.177 A 
ATOM     12  C   UNL     1       3.799   2.570   0.938  1.00  0.00     0.160 A 
ATOM     13  C   UNL     1       2.657   1.804   0.764  1.00  0.00     0.144 A 
ATOM     14  F   UNL     1       4.242  -1.447   0.648  1.00  0.00    -0.202 F 
BRANCH   9  15
ATOM     15  N   UNL     1       6.512   0.191   0.995  1.00  0.00    -0.352 N 
ATOM     16  N   UNL     1       8.925   0.433  -0.778  1.00  0.00    -0.303 NA
ATOM     17  C   UNL     1       8.344  -0.863  -0.367  1.00  0.00     0.105 C 
ATOM     18  C   UNL     1       8.280   1.567  -0.069  1.00  0.00     0.105 C 
ATOM     19  C   UNL     1       6.834  -0.836  -0.023  1.00  0.00     0.133 C 
ATOM     20  C   UNL     1       7.597   1.160   1.254  1.00  0.00     0.133 C 
ATOM     21  C   UNL     1       8.854   0.628  -2.224  1.00  0.00     0.105 C 
ENDBRANCH   9  15
BRANCH  13  22
ATOM     22  O   UNL     1       1.420   2.380   0.698  1.00  0.00    -0.506 OA
ATOM     23  H   UNL     1       1.497   3.343   0.795  1.00  0.00     0.293 HD
ENDBRANCH  13  22
ENDBRANCH   3   8
ENDBRANCH   1   2
BRANCH   1  24
ATOM     24  N   UNL     1      -3.103  -2.465  -0.152  1.00  0.00    -0.299 NA
ATOM     25  C   UNL     1      -3.321  -1.733  -1.401  1.00  0.00     0.087 C 
ATOM     26  C   UNL     1      -3.522  -1.726   1.032  1.00  0.00     0.087 C 
ATOM     27  C   UNL     1      -4.529  -0.789  -1.346  1.00  0.00     0.041 C 
ATOM     28  C   UNL     1      -5.044  -1.558   1.021  1.00  0.00     0.041 C 
ATOM     29  C   UNL     1      -5.601  -1.328  -0.395  1.00  0.00     0.095 C 
BRANCH  29  30
ATOM     30  N   UNL     1      -6.820  -0.532  -0.400  1.00  0.00    -0.291 N 
ATOM     31  C   UNL     1      -8.053  -0.985  -0.783  1.00  0.00     0.295 A 
ATOM     32  C   UNL     1      -6.977   0.791  -0.038  1.00  0.00     0.072 A 
ATOM     33  N   UNL     1      -8.988  -0.078  -0.707  1.00  0.00    -0.195 NA
ATOM     34  C   UNL     1      -6.104   1.777   0.442  1.00  0.00     0.029 A 
ATOM     35  C   UNL     1      -8.337   1.039  -0.244  1.00  0.00     0.092 A 
ATOM     36  C   UNL     1      -6.642   3.043   0.704  1.00  0.00     0.002 A 
ATOM     37  C   UNL     1      -8.857   2.315   0.026  1.00  0.00     0.031 A 
ATOM     38  C   UNL     1      -7.996   3.311   0.500  1.00  0.00     0.002 A 
BRANCH  31  39
ATOM     39  O   UNL     1      -8.308  -2.211  -1.193  1.00  0.00    -0.480 OA
ATOM     40  H   UNL     1      -9.265  -2.159  -1.366  1.00  0.00     0.296 HD
ENDBRANCH  31  39
ENDBRANCH  29  30
ENDBRANCH   1  24
TORSDOF 7
