REMARK SMILES CN[C@H]1CN(Cc2ccc(C(=O)Nc3ccccc3CN3CCC(c4nnn[nH]4)CC3)cc2)C[C@H]1O
REMARK SMILES IDX 11 1 12 2 13 3 10 5 7 6 8 7 33 8 9 9 32 10 6 11 5 12 3 13
REMARK SMILES IDX 4 14 35 15 34 16 2 17 1 18 36 20 14 22 15 23 19 24 16 25
REMARK SMILES IDX 18 26 17 27 20 28 21 29 22 30 31 31 23 32 30 33 24 34 25 35
REMARK SMILES IDX 26 36 29 37 27 38 28 39
REMARK H PARENT 13 4 2 19 36 21 29 40
ROOT
ATOM      1  C   UNL     1       0.115   0.438   2.776  1.00  0.00     0.255 C 
ATOM      2  O   UNL     1      -0.474   0.982   3.703  1.00  0.00    -0.269 OA
ATOM      3  N   UNL     1       1.419  -0.015   2.763  1.00  0.00    -0.322 N 
ATOM      4  H   UNL     1       1.735  -0.521   1.938  1.00  0.00     0.170 HD
ENDROOT
BRANCH   1   5
ATOM      5  C   UNL     1      -0.646   0.162   1.527  1.00  0.00     0.040 A 
ATOM      6  C   UNL     1      -2.148  -0.378  -0.789  1.00  0.00    -0.034 A 
ATOM      7  C   UNL     1      -0.817   0.054  -0.887  1.00  0.00     0.006 A 
ATOM      8  C   UNL     1      -2.712  -0.547   0.487  1.00  0.00     0.006 A 
ATOM      9  C   UNL     1      -0.069   0.329   0.262  1.00  0.00     0.014 A 
ATOM     10  C   UNL     1      -1.973  -0.262   1.635  1.00  0.00     0.014 A 
BRANCH   6  11
ATOM     11  C   UNL     1      -2.946  -0.709  -2.037  1.00  0.00     0.120 C 
BRANCH  11  12
ATOM     12  N   UNL     1      -4.314  -0.193  -2.005  1.00  0.00    -0.295 NA
ATOM     13  C   UNL     1      -5.884   1.538  -2.437  1.00  0.00     0.097 C 
ATOM     14  C   UNL     1      -4.407   1.272  -2.081  1.00  0.00     0.106 C 
ATOM     15  C   UNL     1      -6.191   0.378  -3.416  1.00  0.00     0.146 C 
ATOM     16  C   UNL     1      -5.155  -0.715  -3.091  1.00  0.00     0.118 C 
BRANCH  13  17
ATOM     17  N   UNL     1      -6.787   1.755  -1.284  1.00  0.00    -0.313 NA
ATOM     18  C   UNL     1      -6.884   0.628  -0.365  1.00  0.00     0.101 C 
ATOM     19  H   UNL     1      -6.473   2.571  -0.763  1.00  0.00     0.122 HD
ENDBRANCH  13  17
BRANCH  15  20
ATOM     20  O   UNL     1      -7.536  -0.090  -3.364  1.00  0.00    -0.390 OA
ATOM     21  H   UNL     1      -7.616  -0.842  -3.972  1.00  0.00     0.211 HD
ENDBRANCH  15  20
ENDBRANCH  11  12
ENDBRANCH   6  11
ENDBRANCH   1   5
BRANCH   3  22
ATOM     22  C   UNL     1       2.376   0.066   3.798  1.00  0.00     0.046 A 
ATOM     23  C   UNL     1       2.190   0.857   4.937  1.00  0.00     0.026 A 
ATOM     24  C   UNL     1       3.573  -0.676   3.659  1.00  0.00    -0.010 A 
ATOM     25  C   UNL     1       3.168   0.920   5.931  1.00  0.00     0.002 A 
ATOM     26  C   UNL     1       4.544  -0.605   4.675  1.00  0.00     0.007 A 
ATOM     27  C   UNL     1       4.344   0.190   5.802  1.00  0.00     0.000 A 
BRANCH  24  28
ATOM     28  C   UNL     1       3.822  -1.615   2.490  1.00  0.00     0.122 C 
BRANCH  28  29
ATOM     29  N   UNL     1       3.641  -0.980   1.159  1.00  0.00    -0.299 NA
ATOM     30  C   UNL     1       3.665  -2.016   0.112  1.00  0.00     0.085 C 
ATOM     31  C   UNL     1       4.699   0.022   0.919  1.00  0.00     0.085 C 
ATOM     32  C   UNL     1       3.420  -1.401  -1.268  1.00  0.00     0.027 C 
ATOM     33  C   UNL     1       4.478   0.717  -0.424  1.00  0.00     0.027 C 
ATOM     34  C   UNL     1       4.449  -0.305  -1.563  1.00  0.00     0.062 C 
BRANCH  34  35
ATOM     35  C   UNL     1       4.210   0.323  -2.895  1.00  0.00     0.151 A 
ATOM     36  N   UNL     1       4.872   0.102  -4.013  1.00  0.00    -0.114 NA
ATOM     37  N   UNL     1       3.227   1.234  -3.169  1.00  0.00    -0.243 N 
ATOM     38  N   UNL     1       4.281   0.891  -4.971  1.00  0.00    -0.024 NA
ATOM     39  N   UNL     1       3.271   1.582  -4.461  1.00  0.00    -0.048 NA
ATOM     40  H   UNL     1       2.528   1.648  -2.564  1.00  0.00     0.193 HD
ENDBRANCH  34  35
ENDBRANCH  28  29
ENDBRANCH  24  28
ENDBRANCH   3  22
TORSDOF 9
