REMARK SMILES CNC(=O)[C@H](N)CCNc1ccc2c(-c3cccc(C)c3)n[nH]c2c1
REMARK SMILES IDX 8 1 7 2 5 3 3 4 2 5 1 6 4 8 6 9 9 12 10 14 11 15 25 16 12 17
REMARK SMILES IDX 24 18 13 19 23 20 14 21 22 22 15 24 16 25 21 26 17 27 19 28
REMARK SMILES IDX 18 29 20 30
REMARK H PARENT 2 7 6 10 6 11 9 13 23 23
ROOT
ATOM      1  C   UNL     1       2.842  -0.737   0.651  1.00  0.00     0.115 C 
ENDROOT
BRANCH   1   2
ATOM      2  C   UNL     1       4.341  -0.457   0.500  1.00  0.00     0.050 C 
BRANCH   2   3
ATOM      3  C   UNL     1       4.738   0.015  -0.907  1.00  0.00     0.142 C 
BRANCH   3   4
ATOM      4  C   UNL     1       6.279   0.059  -1.041  1.00  0.00     0.236 C 
ATOM      5  N   UNL     1       6.884  -1.179  -1.077  1.00  0.00    -0.358 N 
ATOM      6  C   UNL     1       8.305  -1.299  -1.287  1.00  0.00     0.142 C 
ATOM      7  H   UNL     1       6.311  -1.997  -1.238  1.00  0.00     0.163 HD
ATOM      8  O   UNL     1       6.903   1.116  -1.115  1.00  0.00    -0.273 OA
ENDBRANCH   3   4
BRANCH   3   9
ATOM      9  N   UNL     1       4.183   1.357  -1.212  1.00  0.00    -0.320 NA
ATOM     10  H   UNL     1       4.659   2.020  -0.588  1.00  0.00     0.119 HD
ATOM     11  H   UNL     1       4.536   1.631  -2.134  1.00  0.00     0.119 HD
ENDBRANCH   3   9
ENDBRANCH   2   3
ENDBRANCH   1   2
BRANCH   1  12
ATOM     12  N   UNL     1       2.084   0.505   0.584  1.00  0.00    -0.385 N 
ATOM     13  H   UNL     1       2.474   1.122  -0.143  1.00  0.00     0.160 HD
BRANCH  12  14
ATOM     14  C   UNL     1       0.686   0.452   0.509  1.00  0.00     0.036 A 
ATOM     15  C   UNL     1      -0.071  -0.598   1.042  1.00  0.00     0.026 A 
ATOM     16  C   UNL     1       0.013   1.575  -0.003  1.00  0.00     0.054 A 
ATOM     17  C   UNL     1      -1.476  -0.591   1.016  1.00  0.00     0.015 A 
ATOM     18  C   UNL     1      -1.387   1.566  -0.026  1.00  0.00     0.068 A 
ATOM     19  C   UNL     1      -2.149   0.518   0.471  1.00  0.00     0.028 A 
ATOM     20  N   UNL     1      -2.291   2.480  -0.486  1.00  0.00    -0.277 N 
ATOM     21  C   UNL     1      -3.510   0.914   0.262  1.00  0.00     0.100 A 
ATOM     22  N   UNL     1      -3.573   2.107  -0.355  1.00  0.00    -0.174 NA
ATOM     23  H   UNL     1      -2.095   3.377  -0.913  1.00  0.00     0.190 HD
BRANCH  21  24
ATOM     24  C   UNL     1      -4.732   0.190   0.617  1.00  0.00     0.003 A 
ATOM     25  C   UNL     1      -4.848  -0.468   1.847  1.00  0.00     0.010 A 
ATOM     26  C   UNL     1      -5.814   0.158  -0.276  1.00  0.00     0.013 A 
ATOM     27  C   UNL     1      -6.015  -1.165   2.169  1.00  0.00     0.001 A 
ATOM     28  C   UNL     1      -6.995  -0.527   0.045  1.00  0.00    -0.050 A 
ATOM     29  C   UNL     1      -7.080  -1.202   1.268  1.00  0.00     0.003 A 
ATOM     30  C   UNL     1      -8.128  -0.581  -0.936  1.00  0.00     0.044 C 
ENDBRANCH  21  24
ENDBRANCH  12  14
ENDBRANCH   1  12
TORSDOF 7
