MODEL        7USER    Run = 7USERUSER    Estimated Free Energy of Binding    = -10.51 kcal/mol  [=(1)+(2)+(3)-(4)]USERUSER    (1) Final Intermolecular Energy     = -12.60 kcal/molUSER        vdW + Hbond + desolv Energy     = -12.26 kcal/molUSER        Electrostatic Energy            =  -0.34 kcal/molUSER        Moving Ligand-Fixed Receptor    = -12.60 kcal/molUSER        Moving Ligand-Moving Receptor   =  +0.00 kcal/molUSER    (2) Final Total Internal Energy     =  -1.79 kcal/molUSER    (3) Torsional Free Energy           =  +2.09 kcal/molUSER    (4) Unbound System's Energy         =  -1.79 kcal/molUSERUSERREMARK SMILES OCCNC1=C(c2ccc(F)c(-c3ccc(O)cc3)c2)N=C2C=CN=C[C@H]21REMARK SMILES IDX 5 1 6 2 21 3 22 4 23 5 24 6 25 7 26 8 27 9 4 10 3 12 2 13REMARK SMILES IDX 1 14 7 16 8 17 20 18 9 19 12 20 10 21 11 22 13 23 14 24REMARK SMILES IDX 19 25 15 26 18 27 16 28 17 29REMARK H PARENT 4 11 1 15 17 30USER                              x       y       z     vdW  Elec       q    TypeUSER                           _______ _______ _______ _____ _____    ______ ____ROOTATOM      1  C   UNL     1      38.672  47.112  15.069 -0.48 -0.02    +0.052 C  ATOM      2  C   UNL     1      38.257  45.977  15.680 -0.38 -0.03    +0.091 C  ATOM      3  N   UNL     1      37.529  45.134  14.869 -0.21 +0.09    -0.250 NA ATOM      4  C   UNL     1      37.418  45.789  13.759 -0.47 -0.02    +0.057 C  ATOM      5  C   UNL     1      36.534  45.455  12.641 -0.58 -0.02    +0.045 C  ATOM      6  C   UNL     1      36.081  46.527  11.974 -0.64 -0.06    +0.112 C  ATOM      7  N   UNL     1      36.339  47.851  12.262 -0.75 +0.12    -0.268 NA ATOM      8  C   UNL     1      37.312  48.116  13.087 -0.40 -0.03    +0.100 C  ATOM      9  C   UNL     1      38.218  47.051  13.640 -0.42 -0.04    +0.128 C  ENDROOTBRANCH   1  10ATOM     10  N   UNL     1      39.455  48.145  15.565 -0.21 +0.14    -0.383 N  ATOM     11  H   UNL     1      39.851  47.899  16.476 +0.11 -0.05    +0.160 HD BRANCH  10  12ATOM     12  C   UNL     1      40.400  48.925  14.754 -0.53 -0.04    +0.141 C  BRANCH  12  13ATOM     13  C   UNL     1      41.363  49.667  15.687 -0.54 -0.02    +0.177 C  BRANCH  13  14ATOM     14  O   UNL     1      41.666  48.849  16.815 -0.84 -0.04    -0.395 OA ATOM     15  H   UNL     1      42.186  48.099  16.461 -0.38 +0.00    +0.210 HD ENDBRANCH  13  14ENDBRANCH  12  13ENDBRANCH  10  12ENDBRANCH   1  10BRANCH   2  16ATOM     16  C   UNL     1      38.515  45.601  17.078 -0.39 -0.00    +0.003 A  ATOM     17  C   UNL     1      37.610  44.818  17.803 -0.35 -0.00    +0.013 A  ATOM     18  C   UNL     1      39.714  46.002  17.694 -0.44 -0.00    +0.022 A  ATOM     19  C   UNL     1      37.885  44.469  19.125 -0.33 -0.00    +0.040 A  ATOM     20  C   UNL     1      40.017  45.659  19.026 -0.43 -0.00    +0.018 A  ATOM     21  C   UNL     1      39.072  44.890  19.722 -0.30 -0.00    +0.131 A  ATOM     22  F   UNL     1      39.297  44.524  20.993 -0.06 -0.00    -0.206 F  BRANCH  20  23ATOM     23  C   UNL     1      41.281  46.096  19.648 -0.42 -0.00    -0.015 A  ATOM     24  C   UNL     1      42.174  46.939  18.961 -0.53 +0.00    +0.012 A  ATOM     25  C   UNL     1      41.634  45.690  20.948 -0.33 +0.00    +0.012 A  ATOM     26  C   UNL     1      43.368  47.363  19.552 -0.38 +0.01    +0.047 A  ATOM     27  C   UNL     1      42.830  46.110  21.542 -0.28 +0.01    +0.047 A  ATOM     28  C   UNL     1      43.686  46.945  20.836 -0.26 +0.06    +0.115 A  BRANCH  28  29ATOM     29  O   UNL     1      44.861  47.379  21.374 -0.65 -0.45    -0.508 OA ATOM     30  H   UNL     1      44.808  48.340  21.498 -0.40 +0.05    +0.293 HD ENDBRANCH  28  29ENDBRANCH  20  23ENDBRANCH   2  16TORSDOF 7TERENDMDL