MODEL        4USER    Run = 4USERUSER    Estimated Free Energy of Binding    =  -9.02 kcal/mol  [=(1)+(2)+(3)-(4)]USERUSER    (1) Final Intermolecular Energy     = -11.11 kcal/molUSER        vdW + Hbond + desolv Energy     = -10.92 kcal/molUSER        Electrostatic Energy            =  -0.19 kcal/molUSER        Moving Ligand-Fixed Receptor    = -11.11 kcal/molUSER        Moving Ligand-Moving Receptor   =  +0.00 kcal/molUSER    (2) Final Total Internal Energy     =  -1.73 kcal/molUSER    (3) Torsional Free Energy           =  +2.09 kcal/molUSER    (4) Unbound System's Energy         =  -1.73 kcal/molUSERUSERREMARK SMILES CNC(=O)[C@H](N)CCNc1ccc2c(-c3cccc(C)c3)n[nH]c2c1REMARK SMILES IDX 8 1 7 2 5 3 3 4 2 5 1 6 4 8 6 9 9 12 10 14 11 15 25 16 12 17REMARK SMILES IDX 24 18 13 19 23 20 14 21 22 22 15 24 16 25 21 26 17 27 19 28REMARK SMILES IDX 18 29 20 30REMARK H PARENT 2 7 6 10 6 11 9 13 23 23USER                              x       y       z     vdW  Elec       q    TypeUSER                           _______ _______ _______ _____ _____    ______ ____ROOTATOM      1  C   UNL     1      32.448  44.644  17.071 -0.28 -0.04    +0.115 C  ENDROOTBRANCH   1   2ATOM      2  C   UNL     1      31.981  43.210  17.345 -0.33 -0.01    +0.050 C  BRANCH   2   3ATOM      3  C   UNL     1      33.081  42.308  17.925 -0.33 -0.04    +0.142 C  BRANCH   3   4ATOM      4  C   UNL     1      33.773  43.009  19.119 -0.29 -0.02    +0.236 C  ATOM      5  N   UNL     1      35.116  43.258  18.934 -0.12 +0.06    -0.358 N  ATOM      6  C   UNL     1      35.874  43.983  19.923 -0.37 -0.01    +0.142 C  ATOM      7  H   UNL     1      35.501  43.186  18.001 +0.11 -0.04    +0.163 HD ATOM      8  O   UNL     1      33.165  43.320  20.141 -0.89 -0.04    -0.273 OA ENDBRANCH   3   4BRANCH   3   9ATOM      9  N   UNL     1      34.101  41.962  16.905 -0.20 +0.16    -0.320 NA ATOM     10  H   UNL     1      34.392  40.995  17.097 -0.54 -0.09    +0.119 HD ATOM     11  H   UNL     1      33.616  41.870  16.007 -0.51 -0.09    +0.119 HD ENDBRANCH   3   9ENDBRANCH   2   3ENDBRANCH   1   2BRANCH   1  12ATOM     12  N   UNL     1      33.018  44.746  15.735 -0.08 +0.24    -0.385 N  ATOM     13  H   UNL     1      32.293  45.026  15.058 +0.11 -0.11    +0.160 HD BRANCH  12  14ATOM     14  C   UNL     1      34.198  45.478  15.547 -0.29 -0.03    +0.036 A  ATOM     15  C   UNL     1      35.161  45.649  16.548 -0.32 -0.02    +0.026 A  ATOM     16  C   UNL     1      34.485  45.940  14.251 -0.16 -0.05    +0.054 A  ATOM     17  C   UNL     1      36.369  46.327  16.311 -0.36 -0.01    +0.015 A  ATOM     18  C   UNL     1      35.690  46.617  14.030 -0.41 -0.05    +0.068 A  ATOM     19  C   UNL     1      36.640  46.821  15.022 -0.38 -0.02    +0.028 A  ATOM     20  N   UNL     1      36.212  47.196  12.910 -0.39 +0.15    -0.277 N  ATOM     21  C   UNL     1      37.704  47.534  14.379 -0.42 -0.05    +0.100 A  ATOM     22  N   UNL     1      37.406  47.781  13.091 -0.92 +0.05    -0.174 NA ATOM     23  H   UNL     1      35.795  47.237  11.988 +0.11 -0.11    +0.190 HD BRANCH  21  24ATOM     24  C   UNL     1      38.970  47.990  14.955 -0.52 -0.00    +0.003 A  ATOM     25  C   UNL     1      39.366  47.588  16.236 -0.48 -0.00    +0.010 A  ATOM     26  C   UNL     1      39.813  48.834  14.216 -0.32 -0.00    +0.013 A  ATOM     27  C   UNL     1      40.571  48.040  16.778 -0.53 -0.00    +0.001 A  ATOM     28  C   UNL     1      41.032  49.281  14.747 -0.61 +0.01    -0.050 A  ATOM     29  C   UNL     1      41.396  48.890  16.041 -0.47 -0.00    +0.003 A  ATOM     30  C   UNL     1      41.905  50.212  13.959 -0.72 -0.01    +0.044 C  ENDBRANCH  21  24ENDBRANCH  12  14ENDBRANCH   1  12TORSDOF 7TERENDMDL