MODEL        4USER    Run = 4USERUSER    Estimated Free Energy of Binding    = -12.38 kcal/mol  [=(1)+(2)+(3)-(4)]USERUSER    (1) Final Intermolecular Energy     = -15.07 kcal/molUSER        vdW + Hbond + desolv Energy     = -14.75 kcal/molUSER        Electrostatic Energy            =  -0.32 kcal/molUSER        Moving Ligand-Fixed Receptor    = -15.07 kcal/molUSER        Moving Ligand-Moving Receptor   =  +0.00 kcal/molUSER    (2) Final Total Internal Energy     =  -4.00 kcal/molUSER    (3) Torsional Free Energy           =  +2.68 kcal/molUSER    (4) Unbound System's Energy         =  -4.00 kcal/molUSERUSERREMARK SMILES CN[C@H]1CN(Cc2ccc(C(=O)Nc3ccccc3CN3CCC(c4nnn[nH]4)CC3)cc2)C[C@H]1OREMARK SMILES IDX 11 1 12 2 13 3 10 5 7 6 8 7 33 8 9 9 32 10 6 11 5 12 3 13REMARK SMILES IDX 4 14 35 15 34 16 2 17 1 18 36 20 14 22 15 23 19 24 16 25REMARK SMILES IDX 18 26 17 27 20 28 21 29 22 30 31 31 23 32 30 33 24 34 25 35REMARK SMILES IDX 26 36 29 37 27 38 28 39REMARK H PARENT 13 4 2 19 36 21 29 40USER                              x       y       z     vdW  Elec       q    TypeUSER                           _______ _______ _______ _____ _____    ______ ____ROOTATOM      1  C   UNL     1      40.079  45.669  18.487 -0.34 -0.02    +0.255 C  ATOM      2  O   UNL     1      41.297  45.545  18.428 -0.32 -0.01    -0.269 OA ATOM      3  N   UNL     1      39.277  46.457  17.685 -0.23 +0.07    -0.322 N  ATOM      4  H   UNL     1      38.269  46.386  17.810 +0.09 -0.05    +0.170 HD ENDROOTBRANCH   1   5ATOM      5  C   UNL     1      39.337  44.847  19.482 -0.37 -0.00    +0.040 A  ATOM      6  C   UNL     1      38.002  43.293  21.408 -0.28 -0.00    -0.034 A  ATOM      7  C   UNL     1      37.333  43.728  20.255 -0.37 -0.00    +0.006 A  ATOM      8  C   UNL     1      39.354  43.637  21.577 -0.17 +0.00    +0.006 A  ATOM      9  C   UNL     1      37.992  44.506  19.298 -0.35 -0.00    +0.014 A  ATOM     10  C   UNL     1      40.011  44.423  20.630 -0.32 +0.00    +0.014 A  BRANCH   6  11ATOM     11  C   UNL     1      37.294  42.419  22.428 -0.43 +0.01    +0.120 C  BRANCH  11  12ATOM     12  N   UNL     1      36.760  43.170  23.564 -0.18 -0.04    -0.295 NA ATOM     13  C   UNL     1      36.703  43.636  25.894 -0.36 -0.01    +0.097 C  ATOM     14  C   UNL     1      36.960  42.515  24.865 -0.38 -0.00    +0.106 C  ATOM     15  C   UNL     1      37.327  44.866  25.190 -0.29 +0.01    +0.146 C  ATOM     16  C   UNL     1      37.335  44.516  23.689 -0.28 +0.02    +0.118 C  BRANCH  13  17ATOM     17  N   UNL     1      35.314  43.731  26.397 -0.18 +0.04    -0.313 NA ATOM     18  C   UNL     1      35.116  43.215  27.745 -0.57 -0.03    +0.101 C  ATOM     19  H   UNL     1      35.018  44.705  26.376 -0.33 -0.05    +0.122 HD ENDBRANCH  13  17BRANCH  15  20ATOM     20  O   UNL     1      36.671  46.098  25.476 -0.73 -0.01    -0.390 OA ATOM     21  H   UNL     1      35.845  45.897  25.944 -0.49 -0.10    +0.211 HD ENDBRANCH  15  20ENDBRANCH  11  12ENDBRANCH   6  11ENDBRANCH   1   5BRANCH   3  22ATOM     22  C   UNL     1      39.675  47.315  16.637 -0.45 -0.01    +0.046 A  ATOM     23  C   UNL     1      40.509  48.420  16.841 -0.38 -0.01    +0.026 A  ATOM     24  C   UNL     1      39.193  47.044  15.334 -0.46 +0.00    -0.010 A  ATOM     25  C   UNL     1      40.867  49.251  15.779 -0.64 -0.00    +0.002 A  ATOM     26  C   UNL     1      39.571  47.890  14.275 -0.40 -0.00    +0.007 A  ATOM     27  C   UNL     1      40.400  48.988  14.496 -0.50 -0.00    +0.000 A  BRANCH  24  28ATOM     28  C   UNL     1      38.344  45.825  15.013 -0.36 -0.04    +0.122 C  BRANCH  28  29ATOM     29  N   UNL     1      37.462  45.395  16.130 -0.15 +0.11    -0.299 NA ATOM     30  C   UNL     1      36.926  44.053  15.845 -0.36 -0.03    +0.085 C  ATOM     31  C   UNL     1      36.362  46.362  16.318 -0.37 -0.06    +0.085 C  ATOM     32  C   UNL     1      36.061  43.555  17.005 -0.40 -0.01    +0.027 C  ATOM     33  C   UNL     1      35.490  45.951  17.504 -0.41 -0.02    +0.027 C  ATOM     34  C   UNL     1      34.927  44.543  17.299 -0.32 -0.03    +0.062 C  BRANCH  34  35ATOM     35  C   UNL     1      34.088  44.085  18.444 -0.24 -0.04    +0.151 A  ATOM     36  N   UNL     1      33.784  42.844  18.765 -0.30 +0.02    -0.114 NA ATOM     37  N   UNL     1      33.508  44.907  19.371 -0.25 +0.08    -0.243 N  ATOM     38  N   UNL     1      33.009  42.920  19.899 -0.88 -0.00    -0.024 NA ATOM     39  N   UNL     1      32.842  44.180  20.276 -0.66 +0.00    -0.048 NA ATOM     40  H   UNL     1      33.516  45.917  19.449 -0.33 -0.10    +0.193 HD ENDBRANCH  34  35ENDBRANCH  28  29ENDBRANCH  24  28ENDBRANCH   3  22TORSDOF 9TERENDMDL