MODEL        3USER    Run = 3USERUSER    Estimated Free Energy of Binding    = -12.43 kcal/mol  [=(1)+(2)+(3)-(4)]USERUSER    (1) Final Intermolecular Energy     = -14.82 kcal/molUSER        vdW + Hbond + desolv Energy     = -14.77 kcal/molUSER        Electrostatic Energy            =  -0.05 kcal/molUSER        Moving Ligand-Fixed Receptor    = -14.82 kcal/molUSER        Moving Ligand-Moving Receptor   =  +0.00 kcal/molUSER    (2) Final Total Internal Energy     =  -1.75 kcal/molUSER    (3) Torsional Free Energy           =  +2.39 kcal/molUSER    (4) Unbound System's Energy         =  -1.75 kcal/molUSERUSERREMARK SMILES Oc1nc2ccccc2n1C1CCN(Cc2ccc(-c3nc4ccccc4nc3-c3ccncc3)cc2OC(F)F)CC1REMARK SMILES IDX 15 1 14 2 11 3 12 4 43 5 13 6 42 7 10 8 2 9 3 10 4 11 9 12REMARK SMILES IDX 5 13 8 14 6 15 7 16 1 17 16 19 17 20 37 21 18 22 36 23 19 24REMARK SMILES IDX 38 25 39 26 40 27 41 28 20 29 21 30 29 31 22 32 28 33 23 34REMARK SMILES IDX 27 35 24 36 26 37 25 38 30 39 31 40 35 41 32 42 34 43 33 44REMARK H PARENT 1 18USER                              x       y       z     vdW  Elec       q    TypeUSER                           _______ _______ _______ _____ _____    ______ ____ROOTATOM      1  C   UNL     1      39.756  43.579  21.806 -0.17 +0.00    +0.124 C  ENDROOTBRANCH   1   2ATOM      2  N   UNL     1      39.942  44.505  20.683 -0.15 -0.01    -0.299 NA ATOM      3  C   UNL     1      40.310  46.397  18.746 -0.42 -0.01    +0.095 C  ATOM      4  C   UNL     1      38.882  45.856  18.940 -0.37 -0.00    +0.041 C  ATOM      5  C   UNL     1      41.341  45.264  18.754 -0.44 +0.00    +0.041 C  ATOM      6  C   UNL     1      38.858  44.530  19.710 -0.36 -0.00    +0.087 C  ATOM      7  C   UNL     1      41.271  44.480  20.072 -0.35 +0.01    +0.087 C  BRANCH   3   8ATOM      8  N   UNL     1      40.440  47.277  17.594 -0.30 +0.04    -0.291 N  ATOM      9  C   UNL     1      41.495  48.120  17.369 -0.20 -0.02    +0.295 A  ATOM     10  N   UNL     1      41.398  48.786  16.253 -0.92 +0.00    -0.195 NA ATOM     11  C   UNL     1      40.210  48.363  15.710 -0.50 -0.02    +0.092 A  ATOM     12  C   UNL     1      39.581  47.418  16.525 -0.43 -0.02    +0.072 A  ATOM     13  C   UNL     1      39.608  48.748  14.501 -0.40 -0.01    +0.031 A  ATOM     14  C   UNL     1      38.352  46.837  16.180 -0.39 -0.01    +0.029 A  ATOM     15  C   UNL     1      38.387  48.171  14.138 -0.52 -0.00    +0.002 A  ATOM     16  C   UNL     1      37.772  47.231  14.965 -0.45 -0.00    +0.002 A  BRANCH   9  17ATOM     17  O   UNL     1      42.531  48.261  18.172 -0.29 -0.02    -0.480 OA ATOM     18  H   UNL     1      43.207  47.739  17.702 -0.32 -0.04    +0.296 HD ENDBRANCH   9  17ENDBRANCH   3   8ENDBRANCH   1   2BRANCH   1  19ATOM     19  C   UNL     1      39.031  44.107  23.033 -0.26 +0.00    +0.008 A  ATOM     20  C   UNL     1      39.719  44.914  23.952 -0.17 +0.00    +0.009 A  ATOM     21  C   UNL     1      37.678  43.820  23.279 -0.26 +0.01    +0.131 A  ATOM     22  C   UNL     1      39.084  45.418  25.091 -0.18 +0.00    +0.011 A  ATOM     23  C   UNL     1      37.037  44.366  24.400 -0.25 +0.01    +0.057 A  ATOM     24  C   UNL     1      37.724  45.176  25.326 -0.30 +0.00    +0.006 A  BRANCH  21  25ATOM     25  O   UNL     1      37.028  43.048  22.352 -0.17 -0.04    -0.434 OA BRANCH  25  26ATOM     26  C   UNL     1      36.912  41.668  22.666 -0.17 +0.03    +0.542 C  ATOM     27  F   UNL     1      36.130  41.054  21.745 -0.25 -0.00    -0.167 F  ATOM     28  F   UNL     1      36.252  41.580  23.847 -0.20 +0.00    -0.167 F  ENDBRANCH  25  26ENDBRANCH  21  25BRANCH  24  29ATOM     29  C   UNL     1      37.012  45.712  26.508 -0.27 -0.01    +0.097 A  ATOM     30  N   UNL     1      37.061  47.072  26.600 -0.25 +0.03    -0.244 NA ATOM     31  C   UNL     1      36.328  44.953  27.471 -0.29 -0.02    +0.097 A  ATOM     32  C   UNL     1      36.406  47.658  27.618 -0.27 -0.02    +0.089 A  ATOM     33  N   UNL     1      35.645  45.553  28.487 -0.31 +0.07    -0.244 NA ATOM     34  C   UNL     1      36.432  49.042  27.746 -0.30 -0.00    +0.030 A  ATOM     35  C   UNL     1      35.687  46.895  28.562 -0.28 -0.02    +0.089 A  ATOM     36  C   UNL     1      35.763  49.687  28.785 -0.24 -0.00    +0.002 A  ATOM     37  C   UNL     1      35.019  47.546  29.590 -0.37 -0.00    +0.030 A  ATOM     38  C   UNL     1      35.051  48.937  29.711 -0.28 -0.00    +0.002 A  BRANCH  31  39ATOM     39  C   UNL     1      36.292  43.483  27.536 -0.44 -0.00    +0.005 A  ATOM     40  C   UNL     1      37.461  42.717  27.628 -0.35 -0.01    +0.030 A  ATOM     41  C   UNL     1      35.067  42.804  27.543 -0.57 -0.01    +0.030 A  ATOM     42  C   UNL     1      37.357  41.337  27.687 -0.41 -0.03    +0.111 A  ATOM     43  C   UNL     1      35.063  41.421  27.605 -0.53 -0.05    +0.111 A  ATOM     44  N   UNL     1      36.182  40.673  27.669 -0.39 +0.10    -0.265 NA ENDBRANCH  31  39ENDBRANCH  24  29ENDBRANCH   1  19TORSDOF 8TERENDMDL