MODEL        8USER    Run = 8USERUSER    Estimated Free Energy of Binding    =  -8.90 kcal/mol  [=(1)+(2)+(3)-(4)]USERUSER    (1) Final Intermolecular Energy     = -11.28 kcal/molUSER        vdW + Hbond + desolv Energy     = -10.96 kcal/molUSER        Electrostatic Energy            =  -0.32 kcal/molUSER        Moving Ligand-Fixed Receptor    = -11.28 kcal/molUSER        Moving Ligand-Moving Receptor   =  +0.00 kcal/molUSER    (2) Final Total Internal Energy     =  -2.05 kcal/molUSER    (3) Torsional Free Energy           =  +2.39 kcal/molUSER    (4) Unbound System's Energy         =  -2.05 kcal/molUSERUSERREMARK SMILES O=C(O)CCC[C@H]1Cc2cc(-c3cccc(-c4ccncn4)c3F)ccc2C[C@H]1OREMARK SMILES IDX 5 1 4 2 2 3 1 4 3 5 6 7 7 8 8 9 29 10 9 11 28 12 10 13 27 14REMARK SMILES IDX 11 15 26 16 25 17 30 18 12 20 13 21 23 22 14 23 16 24 15 25REMARK SMILES IDX 24 26 17 27 18 28 22 29 19 30 21 31 20 32REMARK H PARENT 3 6 30 19USER                              x       y       z     vdW  Elec       q    TypeUSER                           _______ _______ _______ _____ _____    ______ ____ROOTATOM      1  C   UNL     1      25.356  55.724   5.354 -0.36 -0.00    +0.012 C  ENDROOTBRANCH   1   2ATOM      2  C   UNL     1      25.408  55.704   3.825 -0.26 -0.01    +0.122 C  BRANCH   2   3ATOM      3  C   UNL     1      26.743  56.159   3.305 -0.19 -0.05    +0.303 C  ATOM      4  O   UNL     1      27.125  57.314   3.202 -0.67 -0.09    -0.252 OA BRANCH   3   5ATOM      5  O   UNL     1      27.524  55.138   2.905 -0.13 +0.41    -0.481 OA ATOM      6  H   UNL     1      27.153  54.362   3.376 -0.42 -0.64    +0.296 HD ENDBRANCH   3   5ENDBRANCH   2   3ENDBRANCH   1   2BRANCH   1   7ATOM      7  C   UNL     1      25.630  54.341   5.951 -0.39 -0.01    +0.007 C  BRANCH   7   8ATOM      8  C   UNL     1      26.844  54.189   6.901 -0.55 -0.02    +0.022 C  ATOM      9  C   UNL     1      26.465  53.765   8.327 -0.45 -0.02    +0.042 C  ATOM     10  C   UNL     1      28.023  53.347   6.389 -0.47 -0.12    +0.122 C  ATOM     11  C   UNL     1      26.432  52.275   8.561 -0.25 +0.03    -0.044 A  ATOM     12  C   UNL     1      27.795  51.835   6.461 -0.48 -0.08    +0.067 C  ATOM     13  C   UNL     1      25.772  51.785   9.703 -0.35 -0.01    +0.012 A  ATOM     14  C   UNL     1      27.085  51.376   7.706 -0.32 +0.04    -0.042 A  ATOM     15  C   UNL     1      25.729  50.413  10.001 -0.34 +0.01    -0.015 A  ATOM     16  C   UNL     1      27.040  50.004   7.991 -0.48 -0.01    +0.005 A  ATOM     17  C   UNL     1      26.374  49.531   9.124 -0.39 -0.01    +0.009 A  BRANCH  10  18ATOM     18  O   UNL     1      28.350  53.729   5.054 -0.21 +0.53    -0.392 OA ATOM     19  H   UNL     1      28.071  54.654   4.937 -0.42 -0.29    +0.210 HD ENDBRANCH  10  18BRANCH  15  20ATOM     20  C   UNL     1      25.021  49.921  11.193 -0.31 -0.01    +0.018 A  ATOM     21  C   UNL     1      24.076  50.730  11.843 -0.39 -0.00    +0.012 A  ATOM     22  C   UNL     1      25.261  48.634  11.714 -0.22 -0.06    +0.140 A  ATOM     23  C   UNL     1      23.397  50.267  12.969 -0.44 -0.00    +0.002 A  ATOM     24  C   UNL     1      24.603  48.141  12.856 -0.28 -0.01    +0.037 A  ATOM     25  C   UNL     1      23.658  48.989  13.466 -0.39 -0.00    +0.013 A  ATOM     26  F   UNL     1      26.154  47.849  11.084 -0.09 +0.11    -0.206 F  BRANCH  24  27ATOM     27  C   UNL     1      24.869  46.797  13.409 -0.26 -0.00    +0.077 A  ATOM     28  C   UNL     1      25.402  45.760  12.662 -0.26 -0.00    +0.049 A  ATOM     29  N   UNL     1      24.585  46.641  14.724 -0.71 -0.09    -0.236 NA ATOM     30  C   UNL     1      25.603  44.564  13.313 -0.21 -0.04    +0.115 A  ATOM     31  C   UNL     1      24.818  45.431  15.256 -0.10 +0.05    +0.222 A  ATOM     32  N   UNL     1      25.317  44.368  14.611 -0.18 +0.04    -0.245 NA ENDBRANCH  24  27ENDBRANCH  15  20ENDBRANCH   7   8ENDBRANCH   1   7TORSDOF 8TERENDMDL