MODEL        10USER    Run = 10USERUSER    Estimated Free Energy of Binding    =  -7.87 kcal/mol  [=(1)+(2)+(3)-(4)]USERUSER    (1) Final Intermolecular Energy     = -12.05 kcal/molUSER        vdW + Hbond + desolv Energy     = -11.89 kcal/molUSER        Electrostatic Energy            =  -0.51 kcal/molUSER        Moving Ligand-Fixed Receptor    = -12.40 kcal/molUSER        Moving Ligand-Moving Receptor   =  +0.35 kcal/molUSER    (2) Final Total Internal Energy     =  -3.08 kcal/molUSER    (3) Torsional Free Energy           =  +4.18 kcal/molUSER    (4) Unbound System's Energy         =  -3.08 kcal/molUSERUSERREMARK SMILES COc1ccc(O)c(C(=O)c2ccc(C(=O)N[C@@H]3CCCNC[C@@H]3NC(=O)c3ccncc3)cc2F)c1FREMARK SMILES IDX 15 1 16 2 17 3 14 5 11 6 12 7 35 8 13 9 34 10 36 11 9 12REMARK SMILES IDX 10 13 8 14 3 15 4 16 37 17 5 18 6 19 38 20 2 21 1 22 7 23REMARK SMILES IDX 18 25 19 26 24 28 23 29 22 30 21 32 20 33 25 35 26 36 27 38REMARK SMILES IDX 28 39 29 40 33 41 30 42 32 43 31 44REMARK H PARENT 17 4 7 24 22 31 25 37REMARK Flexibility Score:   88.900USER                              x       y       z     vdW  Elec       q    TypeUSER                           _______ _______ _______ _____ _____    ______ ____ROOTATOM      1  C   UNL     1      40.252  47.429  16.286 -0.39 -0.05    +0.251 C  ATOM      2  O   UNL     1      40.587  48.478  15.749 -0.43 +0.06    -0.269 OA ATOM      3  N   UNL     1      39.377  46.531  15.711 -0.18 +0.08    -0.347 N  ATOM      4  H   UNL     1      39.340  45.581  16.060 +0.11 -0.03    +0.164 HD ENDROOTBRANCH   1   5ATOM      5  C   UNL     1      40.819  47.061  17.614 -0.49 -0.00    +0.042 A  ATOM      6  C   UNL     1      41.802  46.297  20.119 -0.37 +0.01    +0.059 A  ATOM      7  C   UNL     1      40.554  45.831  19.699 -0.40 +0.00    +0.016 A  ATOM      8  C   UNL     1      42.561  47.116  19.286 -0.43 +0.02    +0.135 A  ATOM      9  C   UNL     1      40.066  46.217  18.447 -0.45 -0.00    +0.015 A  ATOM     10  C   UNL     1      42.079  47.501  18.036 -0.30 -0.00    +0.053 A  ATOM     11  F   UNL     1      43.762  47.568  19.673 -0.14 -0.06    -0.206 F  BRANCH   6  12ATOM     12  C   UNL     1      42.351  45.886  21.418 -0.24 +0.05    +0.202 C  ATOM     13  O   UNL     1      42.154  44.730  21.795 -0.16 -0.05    -0.288 OA BRANCH  12  14ATOM     14  C   UNL     1      43.071  46.827  22.311 -0.24 +0.03    +0.104 A  ATOM     15  C   UNL     1      43.103  48.720  23.856 -0.25 +0.04    +0.155 A  ATOM     16  C   UNL     1      44.481  48.564  24.017 -0.23 +0.01    +0.053 A  ATOM     17  C   UNL     1      42.411  47.850  22.998 -0.22 +0.03    +0.179 A  ATOM     18  C   UNL     1      45.156  47.559  23.319 -0.21 +0.02    +0.051 A  ATOM     19  C   UNL     1      44.457  46.706  22.468 -0.20 +0.07    +0.130 A  ATOM     20  F   UNL     1      41.090  48.034  22.836 +0.09 -0.03    -0.202 F  BRANCH  15  21ATOM     21  O   UNL     1      42.336  49.671  24.476 -0.48 -0.17    -0.494 OA ATOM     22  C   UNL     1      41.528  49.247  25.564 -0.23 +0.04    +0.278 C  ENDBRANCH  15  21BRANCH  19  23ATOM     23  O   UNL     1      45.207  45.761  21.816 -0.30 -0.71    -0.507 OA ATOM     24  H   UNL     1      44.653  44.954  21.707 +0.11 +0.26    +0.293 HD ENDBRANCH  19  23ENDBRANCH  12  14ENDBRANCH   6  12ENDBRANCH   1   5BRANCH   3  25ATOM     25  C   UNL     1      38.844  46.726  14.353 -0.43 -0.03    +0.106 C  BRANCH  25  26ATOM     26  C   UNL     1      38.418  48.188  14.138 -0.57 -0.01    +0.028 CG0ATOM     27  G   UNL     1      36.904  48.452  14.087 +0.00 +0.00    +0.000 G0 ENDBRANCH  25  26BRANCH  25  28ATOM     28  C   UNL     1      37.695  45.715  14.089 -0.40 -0.04    +0.118 C  BRANCH  28  29ATOM     29  C   UNL     1      37.071  45.802  12.677 -0.51 -0.04    +0.108 C  BRANCH  29  30ATOM     30  N   UNL     1      35.961  46.722  12.483 -0.38 +0.17    -0.315 NA ATOM     31  H   UNL     1      35.542  46.607  11.559 -0.03 -0.08    +0.122 HD BRANCH  30  32ATOM     32  C   UNL     1      36.202  48.131  12.766 -0.59 -0.04    +0.081 C  BRANCH  32  33ATOM     33  C   UNL     1      36.904  48.452  14.088 -0.59 -0.01    +0.017 CG0ATOM     34  G   UNL     1      38.418  48.185  14.142 +0.00 +0.00    +0.000 G0 ENDBRANCH  32  33ENDBRANCH  30  32ENDBRANCH  29  30ENDBRANCH  28  29BRANCH  28  35ATOM     35  N   UNL     1      36.636  45.869  15.112 -0.12 +0.19    -0.346 N  ATOM     36  C   UNL     1      36.678  45.147  16.288 -0.23 -0.11    +0.251 C  ATOM     37  H   UNL     1      35.731  46.164  14.768 +0.12 -0.12    +0.164 HD ATOM     38  O   UNL     1      37.639  44.467  16.623 -0.22 +0.07    -0.269 OA BRANCH  36  39ATOM     39  C   UNL     1      35.462  45.197  17.143 -0.30 -0.02    +0.042 A  ATOM     40  C   UNL     1      35.032  46.443  17.601 -0.37 -0.03    +0.034 A  ATOM     41  C   UNL     1      34.739  44.051  17.477 -0.28 -0.01    +0.034 A  ATOM     42  C   UNL     1      33.904  46.488  18.398 -0.45 -0.09    +0.112 A  ATOM     43  C   UNL     1      33.622  44.204  18.278 -0.27 -0.03    +0.112 A  ATOM     44  N   UNL     1      33.196  45.394  18.752 -0.25 +0.11    -0.265 NA ENDBRANCH  36  39ENDBRANCH  28  35ENDBRANCH  25  28ENDBRANCH   3  25TORSDOF 8TERENDMDL