MODEL        8USER    Run = 8USERUSER    Estimated Free Energy of Binding    =  -9.16 kcal/mol  [=(1)+(2)+(3)-(4)]USERUSER    (1) Final Intermolecular Energy     = -10.65 kcal/molUSER        vdW + Hbond + desolv Energy     = -10.35 kcal/molUSER        Electrostatic Energy            =  -0.30 kcal/molUSER        Moving Ligand-Fixed Receptor    = -10.65 kcal/molUSER        Moving Ligand-Moving Receptor   =  +0.00 kcal/molUSER    (2) Final Total Internal Energy     =  -1.03 kcal/molUSER    (3) Torsional Free Energy           =  +1.49 kcal/molUSER    (4) Unbound System's Energy         =  -1.03 kcal/molUSERUSERREMARK SMILES Cn1c(-c2ccnc(N)c2)nc2cc(C(=O)c3ccc(F)cc3O)ccc21REMARK SMILES IDX 1 1 2 2 3 3 11 4 12 5 13 6 14 7 25 8 26 9 27 10 4 11 5 12REMARK SMILES IDX 10 13 6 14 8 15 7 16 9 17 15 20 16 21 17 22 18 23 23 24REMARK SMILES IDX 19 25 22 26 20 27 21 28 24 29REMARK H PARENT 9 18 9 19 24 30USER                              x       y       z     vdW  Elec       q    TypeUSER                           _______ _______ _______ _____ _____    ______ ____ROOTATOM      1  C   UNL     1      38.154  45.390  14.509 -0.31 -0.04    +0.152 C  ATOM      2  N   UNL     1      37.660  45.368  15.867 -0.13 +0.11    -0.327 N  ATOM      3  C   UNL     1      38.104  46.151  16.917 -0.29 -0.05    +0.141 A  ATOM      4  N   UNL     1      37.336  45.966  17.974 -0.18 +0.07    -0.228 NA ATOM      5  C   UNL     1      36.433  44.996  17.633 -0.27 -0.03    +0.090 A  ATOM      6  C   UNL     1      35.424  44.411  18.411 -0.31 -0.01    +0.042 A  ATOM      7  C   UNL     1      34.607  43.439  17.818 -0.31 -0.01    +0.025 A  ATOM      8  C   UNL     1      34.813  43.031  16.493 -0.41 -0.01    +0.014 A  ATOM      9  C   UNL     1      35.819  43.609  15.709 -0.39 -0.01    +0.029 A  ATOM     10  C   UNL     1      36.610  44.595  16.313 -0.30 -0.03    +0.068 A  ENDROOTBRANCH   3  11ATOM     11  C   UNL     1      39.227  47.090  16.877 -0.43 -0.01    +0.023 A  ATOM     12  C   UNL     1      39.270  48.157  15.983 -0.47 -0.01    +0.032 A  ATOM     13  C   UNL     1      40.315  46.888  17.731 -0.45 -0.01    +0.058 A  ATOM     14  C   UNL     1      40.375  48.986  16.014 -0.47 -0.03    +0.114 A  ATOM     15  C   UNL     1      41.382  47.775  17.697 -0.41 -0.01    +0.124 A  ATOM     16  N   UNL     1      41.415  48.822  16.858 -0.91 -0.00    -0.240 NA BRANCH  15  17ATOM     17  N   UNL     1      42.482  47.583  18.538 -0.31 -0.01    -0.384 N  ATOM     18  H   UNL     1      43.279  47.270  17.996 -0.48 -0.01    +0.158 HD ATOM     19  H   UNL     1      42.728  48.469  18.972 -0.18 -0.01    +0.158 HD ENDBRANCH  15  17ENDBRANCH   3  11BRANCH   7  20ATOM     20  C   UNL     1      33.552  42.817  18.647 -0.29 -0.03    +0.196 C  ATOM     21  O   UNL     1      33.644  42.875  19.872 -0.74 -0.03    -0.288 OA BRANCH  20  22ATOM     22  C   UNL     1      32.393  42.103  18.051 -0.31 -0.01    +0.064 A  ATOM     23  C   UNL     1      31.764  42.574  16.887 -0.30 -0.01    +0.019 A  ATOM     24  C   UNL     1      31.892  40.951  18.681 -0.29 -0.01    +0.129 A  ATOM     25  C   UNL     1      30.681  41.875  16.348 -0.29 -0.02    +0.040 A  ATOM     26  C   UNL     1      30.818  40.251  18.138 -0.29 -0.00    +0.086 A  ATOM     27  C   UNL     1      30.223  40.720  16.974 -0.28 -0.02    +0.126 A  ATOM     28  F   UNL     1      29.186  40.055  16.448 -0.12 -0.02    -0.207 F  BRANCH  24  29ATOM     29  O   UNL     1      32.417  40.454  19.844 -0.61 -0.16    -0.507 OA ATOM     30  H   UNL     1      33.044  41.124  20.203 +0.20 +0.11    +0.293 HD ENDBRANCH  24  29ENDBRANCH  20  22ENDBRANCH   7  20TORSDOF 5TERENDMDL