REMARK SMILES Cn1c(-c2ccnc(N)c2)nc2cc(C(=O)c3ccc(F)cc3O)ccc21
REMARK SMILES IDX 1 1 2 2 3 3 11 4 12 5 13 6 14 7 25 8 26 9 27 10 4 11 5 12
REMARK SMILES IDX 10 13 6 14 8 15 7 16 9 17 15 20 16 21 17 22 18 23 23 24
REMARK SMILES IDX 19 25 22 26 20 27 21 28 24 29
REMARK H PARENT 9 18 9 19 24 30
ROOT
ATOM      1  C   UNL     1       2.258  -1.186   2.409  1.00  0.00     0.152 C 
ATOM      2  N   UNL     1       1.797  -0.360   1.317  1.00  0.00    -0.327 N 
ATOM      3  C   UNL     1       2.577   0.195   0.319  1.00  0.00     0.141 A 
ATOM      4  N   UNL     1       1.808   0.771  -0.587  1.00  0.00    -0.228 NA
ATOM      5  C   UNL     1       0.522   0.659  -0.132  1.00  0.00     0.090 A 
ATOM      6  C   UNL     1      -0.665   1.138  -0.703  1.00  0.00     0.042 A 
ATOM      7  C   UNL     1      -1.873   0.873  -0.045  1.00  0.00     0.025 A 
ATOM      8  C   UNL     1      -1.897   0.180   1.173  1.00  0.00     0.014 A 
ATOM      9  C   UNL     1      -0.716  -0.301   1.751  1.00  0.00     0.029 A 
ATOM     10  C   UNL     1       0.479  -0.046   1.066  1.00  0.00     0.068 A 
ENDROOT
BRANCH   3  11
ATOM     11  C   UNL     1       4.037   0.128   0.227  1.00  0.00     0.023 A 
ATOM     12  C   UNL     1       4.863   0.446   1.302  1.00  0.00     0.032 A 
ATOM     13  C   UNL     1       4.628  -0.221  -0.991  1.00  0.00     0.058 A 
ATOM     14  C   UNL     1       6.230   0.361   1.118  1.00  0.00     0.114 A 
ATOM     15  C   UNL     1       6.011  -0.285  -1.083  1.00  0.00     0.124 A 
ATOM     16  N   UNL     1       6.811  -0.008  -0.042  1.00  0.00    -0.240 NA
BRANCH  15  17
ATOM     17  N   UNL     1       6.619  -0.624  -2.296  1.00  0.00    -0.384 N 
ATOM     18  H   UNL     1       6.279  -1.526  -2.611  1.00  0.00     0.158 HD
ATOM     19  H   UNL     1       6.369   0.067  -2.998  1.00  0.00     0.158 HD
ENDBRANCH  15  17
ENDBRANCH   3  11
BRANCH   7  20
ATOM     20  C   UNL     1      -3.121   1.392  -0.646  1.00  0.00     0.196 C 
ATOM     21  O   UNL     1      -3.148   2.550  -1.060  1.00  0.00    -0.288 OA
BRANCH  20  22
ATOM     22  C   UNL     1      -4.354   0.568  -0.748  1.00  0.00     0.064 A 
ATOM     23  C   UNL     1      -4.295  -0.834  -0.793  1.00  0.00     0.019 A 
ATOM     24  C   UNL     1      -5.604   1.204  -0.835  1.00  0.00     0.129 A 
ATOM     25  C   UNL     1      -5.474  -1.579  -0.882  1.00  0.00     0.040 A 
ATOM     26  C   UNL     1      -6.778   0.460  -0.915  1.00  0.00     0.086 A 
ATOM     27  C   UNL     1      -6.702  -0.927  -0.936  1.00  0.00     0.126 A 
ATOM     28  F   UNL     1      -7.826  -1.650  -1.018  1.00  0.00    -0.207 F 
BRANCH  24  29
ATOM     29  O   UNL     1      -5.745   2.566  -0.846  1.00  0.00    -0.507 OA
ATOM     30  H   UNL     1      -4.851   2.961  -0.970  1.00  0.00     0.293 HD
ENDBRANCH  24  29
ENDBRANCH  20  22
ENDBRANCH   7  20
TORSDOF 5
