REMARK SMILES Oc1nc2ccccc2n1C1CCN(Cc2ccc(-c3nc4ccccc4nc3-c3ccncc3)cc2OC(F)F)CC1
REMARK SMILES IDX 15 1 14 2 11 3 12 4 43 5 13 6 42 7 10 8 2 9 3 10 4 11 9 12
REMARK SMILES IDX 5 13 8 14 6 15 7 16 1 17 16 19 17 20 37 21 18 22 36 23 19 24
REMARK SMILES IDX 38 25 39 26 40 27 41 28 20 29 21 30 29 31 22 32 28 33 23 34
REMARK SMILES IDX 27 35 24 36 26 37 25 38 30 39 31 40 35 41 32 42 34 43 33 44
REMARK H PARENT 1 18
ROOT
ATOM      1  C   UNL     1       0.696  -1.986  -2.129  1.00  0.00     0.124 C 
ENDROOT
BRANCH   1   2
ATOM      2  N   UNL     1       2.027  -1.512  -1.732  1.00  0.00    -0.299 NA
ATOM      3  C   UNL     1       4.592  -0.768  -1.156  1.00  0.00     0.095 C 
ATOM      4  C   UNL     1       3.888  -1.703  -0.155  1.00  0.00     0.041 C 
ATOM      5  C   UNL     1       3.668   0.370  -1.600  1.00  0.00     0.041 C 
ATOM      6  C   UNL     1       2.364  -1.704  -0.328  1.00  0.00     0.087 C 
ATOM      7  C   UNL     1       2.392  -0.191  -2.243  1.00  0.00     0.087 C 
BRANCH   3   8
ATOM      8  N   UNL     1       5.889  -0.300  -0.690  1.00  0.00    -0.291 N 
ATOM      9  C   UNL     1       7.085  -0.585  -1.291  1.00  0.00     0.295 A 
ATOM     10  N   UNL     1       8.107  -0.027  -0.705  1.00  0.00    -0.195 NA
ATOM     11  C   UNL     1       7.556   0.664   0.346  1.00  0.00     0.092 A 
ATOM     12  C   UNL     1       6.167   0.514   0.388  1.00  0.00     0.072 A 
ATOM     13  C   UNL     1       8.198   1.457   1.311  1.00  0.00     0.031 A 
ATOM     14  C   UNL     1       5.381   1.128   1.374  1.00  0.00     0.029 A 
ATOM     15  C   UNL     1       7.427   2.084   2.295  1.00  0.00     0.002 A 
ATOM     16  C   UNL     1       6.042   1.921   2.323  1.00  0.00     0.002 A 
BRANCH   9  17
ATOM     17  O   UNL     1       7.228  -1.334  -2.366  1.00  0.00    -0.480 OA
ATOM     18  H   UNL     1       8.195  -1.309  -2.487  1.00  0.00     0.296 HD
ENDBRANCH   9  17
ENDBRANCH   3   8
ENDBRANCH   1   2
BRANCH   1  19
ATOM     19  C   UNL     1      -0.502  -1.374  -1.423  1.00  0.00     0.008 A 
ATOM     20  C   UNL     1      -1.035  -0.161  -1.886  1.00  0.00     0.009 A 
ATOM     21  C   UNL     1      -1.108  -1.990  -0.315  1.00  0.00     0.131 A 
ATOM     22  C   UNL     1      -2.137   0.431  -1.262  1.00  0.00     0.011 A 
ATOM     23  C   UNL     1      -2.240  -1.412   0.277  1.00  0.00     0.057 A 
ATOM     24  C   UNL     1      -2.779  -0.194  -0.184  1.00  0.00     0.006 A 
BRANCH  21  25
ATOM     25  O   UNL     1      -0.579  -3.184   0.099  1.00  0.00    -0.434 OA
BRANCH  25  26
ATOM     26  C   UNL     1      -0.633  -3.434   1.496  1.00  0.00     0.542 C 
ATOM     27  F   UNL     1      -0.109  -2.381   2.169  1.00  0.00    -0.167 F 
ATOM     28  F   UNL     1       0.181  -4.489   1.746  1.00  0.00    -0.167 F 
ENDBRANCH  25  26
ENDBRANCH  21  25
BRANCH  24  29
ATOM     29  C   UNL     1      -3.961   0.391   0.487  1.00  0.00     0.097 A 
ATOM     30  N   UNL     1      -3.903   0.319   1.848  1.00  0.00    -0.244 NA
ATOM     31  C   UNL     1      -5.061   0.985  -0.152  1.00  0.00     0.097 A 
ATOM     32  C   UNL     1      -4.911   0.864   2.551  1.00  0.00     0.089 A 
ATOM     33  N   UNL     1      -6.069   1.557   0.566  1.00  0.00    -0.244 NA
ATOM     34  C   UNL     1      -4.888   0.810   3.940  1.00  0.00     0.030 A 
ATOM     35  C   UNL     1      -5.997   1.494   1.907  1.00  0.00     0.089 A 
ATOM     36  C   UNL     1      -5.913   1.366   4.705  1.00  0.00     0.002 A 
ATOM     37  C   UNL     1      -7.010   2.050   2.676  1.00  0.00     0.030 A 
ATOM     38  C   UNL     1      -6.978   1.991   4.071  1.00  0.00     0.002 A 
BRANCH  31  39
ATOM     39  C   UNL     1      -5.285   1.030  -1.606  1.00  0.00     0.005 A 
ATOM     40  C   UNL     1      -5.283  -0.130  -2.392  1.00  0.00     0.030 A 
ATOM     41  C   UNL     1      -5.545   2.249  -2.245  1.00  0.00     0.030 A 
ATOM     42  C   UNL     1      -5.502  -0.018  -3.755  1.00  0.00     0.111 A 
ATOM     43  C   UNL     1      -5.753   2.261  -3.614  1.00  0.00     0.111 A 
ATOM     44  N   UNL     1      -5.729   1.155  -4.383  1.00  0.00    -0.265 NA
ENDBRANCH  31  39
ENDBRANCH  24  29
ENDBRANCH   1  19
TORSDOF 8
