MODEL        10USER    Run = 10USERUSER    Estimated Free Energy of Binding    =  -8.45 kcal/mol  [=(1)+(2)+(3)-(4)]USERUSER    (1) Final Intermolecular Energy     = -10.24 kcal/molUSER        vdW + Hbond + desolv Energy     =  -9.78 kcal/molUSER        Electrostatic Energy            =  -0.46 kcal/molUSER        Moving Ligand-Fixed Receptor    = -10.24 kcal/molUSER        Moving Ligand-Moving Receptor   =  +0.00 kcal/molUSER    (2) Final Total Internal Energy     =  -2.04 kcal/molUSER    (3) Torsional Free Energy           =  +1.79 kcal/molUSER    (4) Unbound System's Energy         =  -2.04 kcal/molUSERUSERREMARK SMILES OCc1cccc(-c2n[nH]c3cc(-c4ccncc4)ccc23)c1COREMARK SMILES IDX 3 1 4 2 5 3 6 4 7 5 23 6 2 7 1 8 24 10 25 11 8 13 9 14 22 15REMARK SMILES IDX 10 16 21 17 11 18 20 19 12 20 13 21 14 23 15 24 19 25 16 26REMARK SMILES IDX 18 27 17 28REMARK H PARENT 1 9 25 12 10 22USER                              x       y       z     vdW  Elec       q    TypeUSER                           _______ _______ _______ _____ _____    ______ ____ROOTATOM      1  C   UNL     1      43.787  45.358  22.186 -0.19 -0.01    -0.016 A  ATOM      2  C   UNL     1      44.071  44.046  22.606 -0.23 +0.00    +0.006 A  ATOM      3  C   UNL     1      43.202  42.998  22.323 -0.31 +0.00    +0.001 A  ATOM      4  C   UNL     1      42.034  43.247  21.612 -0.34 +0.00    +0.011 A  ATOM      5  C   UNL     1      41.711  44.549  21.193 -0.31 +0.00    +0.008 A  ATOM      6  C   UNL     1      42.575  45.630  21.495 -0.27 -0.00    -0.008 A  ENDROOTBRANCH   1   7ATOM      7  C   UNL     1      44.792  46.437  22.519 -0.18 +0.12    +0.192 C  BRANCH   7   8ATOM      8  O   UNL     1      45.168  47.139  21.345 -0.69 -0.53    -0.392 OA ATOM      9  H   UNL     1      44.572  47.918  21.318 -0.39 +0.07    +0.211 HD ENDBRANCH   7   8ENDBRANCH   1   7BRANCH   6  10ATOM     10  C   UNL     1      42.225  47.042  21.076 -0.13 +0.03    +0.192 C  BRANCH  10  11ATOM     11  O   UNL     1      42.997  47.409  19.930 -0.31 -0.07    -0.392 OA ATOM     12  H   UNL     1      43.595  48.117  20.230 -0.44 -0.03    +0.211 HD ENDBRANCH  10  11ENDBRANCH   6  10BRANCH   5  13ATOM     13  C   UNL     1      40.471  44.721  20.437 -0.30 +0.00    +0.100 A  ATOM     14  N   UNL     1      39.284  44.363  20.955 -0.22 -0.00    -0.174 NA ATOM     15  C   UNL     1      40.321  45.273  19.128 -0.43 -0.00    +0.028 A  ATOM     16  N   UNL     1      38.398  44.709  20.008 -0.21 +0.01    -0.277 N  ATOM     17  C   UNL     1      41.179  45.783  18.137 -0.47 -0.00    +0.013 A  ATOM     18  C   UNL     1      38.955  45.247  18.880 -0.36 -0.01    +0.066 A  ATOM     19  C   UNL     1      40.626  46.253  16.937 -0.45 -0.00    +0.009 A  ATOM     20  C   UNL     1      38.384  45.711  17.689 -0.37 -0.01    +0.037 A  ATOM     21  C   UNL     1      39.241  46.225  16.697 -0.42 +0.00    -0.016 A  ATOM     22  H   UNL     1      37.415  44.547  20.191 +0.12 -0.01    +0.190 HD BRANCH  21  23ATOM     23  C   UNL     1      38.692  46.729  15.428 -0.42 +0.01    -0.015 A  ATOM     24  C   UNL     1      38.031  45.875  14.537 -0.39 -0.01    +0.029 A  ATOM     25  C   UNL     1      38.817  48.075  15.070 -0.50 -0.01    +0.029 A  ATOM     26  C   UNL     1      37.535  46.395  13.351 -0.39 -0.04    +0.111 A  ATOM     27  C   UNL     1      38.284  48.503  13.863 -0.34 -0.04    +0.111 A  ATOM     28  N   UNL     1      37.648  47.690  12.994 -0.84 +0.06    -0.265 NA ENDBRANCH  21  23ENDBRANCH   5  13TORSDOF 6TERENDMDL