MODEL        2USER    Run = 2USERUSER    Estimated Free Energy of Binding    =  -8.87 kcal/mol  [=(1)+(2)+(3)-(4)]USERUSER    (1) Final Intermolecular Energy     = -10.07 kcal/molUSER        vdW + Hbond + desolv Energy     =  -9.96 kcal/molUSER        Electrostatic Energy            =  -0.11 kcal/molUSER        Moving Ligand-Fixed Receptor    = -10.07 kcal/molUSER        Moving Ligand-Moving Receptor   =  +0.00 kcal/molUSER    (2) Final Total Internal Energy     =  -0.82 kcal/molUSER    (3) Torsional Free Energy           =  +1.19 kcal/molUSER    (4) Unbound System's Energy         =  -0.82 kcal/molUSERUSERREMARK SMILES Cc1c(CO)cccc1-c1n[nH]c2cc(-c3ccncc3)ccc12REMARK SMILES IDX 1 1 2 2 3 3 6 4 7 5 8 6 9 7 4 8 5 9 10 11 11 12 24 13 12 14REMARK SMILES IDX 23 15 13 16 22 17 14 18 15 19 16 21 17 22 21 23 18 24 20 25REMARK SMILES IDX 19 26REMARK H PARENT 5 10 12 20USER                              x       y       z     vdW  Elec       q    TypeUSER                           _______ _______ _______ _____ _____    ______ ____ROOTATOM      1  C   UNL     1      34.424  46.233  14.205 -0.35 -0.04    +0.045 C  ATOM      2  C   UNL     1      35.808  46.629  14.664 -0.38 +0.03    -0.036 A  ATOM      3  C   UNL     1      36.734  47.213  13.761 -0.51 +0.01    -0.019 A  ATOM      4  C   UNL     1      38.008  47.590  14.222 -0.51 -0.00    +0.006 A  ATOM      5  C   UNL     1      38.373  47.409  15.551 -0.46 -0.00    +0.001 A  ATOM      6  C   UNL     1      37.462  46.859  16.448 -0.35 -0.01    +0.011 A  ATOM      7  C   UNL     1      36.181  46.475  16.022 -0.37 -0.00    +0.006 A  ENDROOTBRANCH   3   8ATOM      8  C   UNL     1      36.393  47.478  12.312 -0.59 -0.09    +0.192 C  BRANCH   8   9ATOM      9  O   UNL     1      37.548  47.389  11.488 -0.86 +0.05    -0.392 OA ATOM     10  H   UNL     1      37.359  47.871  10.663 -0.26 -0.08    +0.211 HD ENDBRANCH   8   9ENDBRANCH   3   8BRANCH   7  11ATOM     11  C   UNL     1      35.265  45.931  17.024 -0.29 -0.08    +0.100 A  ATOM     12  N   UNL     1      34.791  46.693  18.023 -0.45 +0.15    -0.174 NA ATOM     13  C   UNL     1      34.774  44.593  17.116 -0.29 -0.01    +0.028 A  ATOM     14  N   UNL     1      34.018  45.858  18.734 -0.33 +0.15    -0.277 N  ATOM     15  C   UNL     1      34.919  43.405  16.376 -0.39 -0.01    +0.013 A  ATOM     16  C   UNL     1      33.961  44.584  18.240 -0.32 -0.02    +0.066 A  ATOM     17  C   UNL     1      34.244  42.252  16.804 -0.39 -0.00    +0.009 A  ATOM     18  C   UNL     1      33.277  43.444  18.684 -0.35 -0.01    +0.037 A  ATOM     19  C   UNL     1      33.427  42.252  17.947 -0.38 +0.00    -0.016 A  ATOM     20  H   UNL     1      33.551  46.223  19.555 -0.39 -0.12    +0.190 HD BRANCH  19  21ATOM     21  C   UNL     1      32.732  41.026  18.370 -0.39 +0.00    -0.015 A  ATOM     22  C   UNL     1      32.823  39.848  17.622 -0.27 -0.01    +0.029 A  ATOM     23  C   UNL     1      31.956  41.001  19.535 -0.20 +0.00    +0.029 A  ATOM     24  C   UNL     1      32.150  38.718  18.061 -0.32 +0.00    +0.111 A  ATOM     25  C   UNL     1      31.317  39.824  19.892 -0.27 +0.02    +0.111 A  ATOM     26  N   UNL     1      31.397  38.680  19.180 -0.31 -0.04    -0.265 NA ENDBRANCH  19  21ENDBRANCH   7  11TORSDOF 4TERENDMDL