REMARK SMILES Cc1c(CO)cccc1-c1n[nH]c2cc(-c3ccncc3)ccc12
REMARK SMILES IDX 1 1 2 2 3 3 6 4 7 5 8 6 9 7 4 8 5 9 10 11 11 12 24 13 12 14
REMARK SMILES IDX 23 15 13 16 22 17 14 18 15 19 16 21 17 22 21 23 18 24 20 25
REMARK SMILES IDX 19 26
REMARK H PARENT 5 10 12 20
ROOT
ATOM      1  C   UNL     1      -3.148   1.760  -0.671  1.00  0.00     0.045 C 
ATOM      2  C   UNL     1      -3.312   0.503   0.151  1.00  0.00    -0.036 A 
ATOM      3  C   UNL     1      -4.482   0.287   0.923  1.00  0.00    -0.019 A 
ATOM      4  C   UNL     1      -4.615  -0.902   1.662  1.00  0.00     0.006 A 
ATOM      5  C   UNL     1      -3.622  -1.875   1.641  1.00  0.00     0.001 A 
ATOM      6  C   UNL     1      -2.482  -1.681   0.868  1.00  0.00     0.011 A 
ATOM      7  C   UNL     1      -2.319  -0.507   0.116  1.00  0.00     0.006 A 
ENDROOT
BRANCH   3   8
ATOM      8  C   UNL     1      -5.621   1.281   0.962  1.00  0.00     0.192 C 
BRANCH   8   9
ATOM      9  O   UNL     1      -6.267   1.373  -0.301  1.00  0.00    -0.392 OA
ATOM     10  H   UNL     1      -5.939   0.641  -0.853  1.00  0.00     0.211 HD
ENDBRANCH   8   9
ENDBRANCH   3   8
BRANCH   7  11
ATOM     11  C   UNL     1      -1.110  -0.382  -0.697  1.00  0.00     0.100 A 
ATOM     12  N   UNL     1      -1.174  -0.312  -2.037  1.00  0.00    -0.174 NA
ATOM     13  C   UNL     1       0.243  -0.338  -0.241  1.00  0.00     0.028 A 
ATOM     14  N   UNL     1       0.109  -0.228  -2.422  1.00  0.00    -0.277 N 
ATOM     15  C   UNL     1       0.895  -0.367   1.005  1.00  0.00     0.013 A 
ATOM     16  C   UNL     1       1.009  -0.234  -1.393  1.00  0.00     0.066 A 
ATOM     17  C   UNL     1       2.296  -0.297   1.040  1.00  0.00     0.009 A 
ATOM     18  C   UNL     1       2.408  -0.161  -1.380  1.00  0.00     0.037 A 
ATOM     19  C   UNL     1       3.063  -0.196  -0.133  1.00  0.00    -0.016 A 
ATOM     20  H   UNL     1       0.306  -0.168  -3.414  1.00  0.00     0.190 HD
BRANCH  19  21
ATOM     21  C   UNL     1       4.531  -0.124  -0.063  1.00  0.00    -0.015 A 
ATOM     22  C   UNL     1       5.231   0.947  -0.629  1.00  0.00     0.029 A 
ATOM     23  C   UNL     1       5.274  -1.126   0.572  1.00  0.00     0.029 A 
ATOM     24  C   UNL     1       6.614   0.970  -0.537  1.00  0.00     0.111 A 
ATOM     25  C   UNL     1       6.655  -1.017   0.610  1.00  0.00     0.111 A 
ATOM     26  N   UNL     1       7.343   0.010   0.069  1.00  0.00    -0.265 NA
ENDBRANCH  19  21
ENDBRANCH   7  11
TORSDOF 4
