MODEL        1USER    Run = 1USERUSER    Estimated Free Energy of Binding    = -10.01 kcal/mol  [=(1)+(2)+(3)-(4)]USERUSER    (1) Final Intermolecular Energy     = -12.39 kcal/molUSER        vdW + Hbond + desolv Energy     = -12.12 kcal/molUSER        Electrostatic Energy            =  -0.27 kcal/molUSER        Moving Ligand-Fixed Receptor    = -12.39 kcal/molUSER        Moving Ligand-Moving Receptor   =  +0.00 kcal/molUSER    (2) Final Total Internal Energy     =  -1.74 kcal/molUSER    (3) Torsional Free Energy           =  +2.39 kcal/molUSER    (4) Unbound System's Energy         =  -1.74 kcal/molUSERUSERREMARK SMILES COc1ccc(O)c(C(=O)c2ccc(C(=O)N[C@@H]3CCNC[C@H]3NC(=O)c3ccn4nnnc4c3)cc2)c1FREMARK SMILES IDX 11 1 12 2 13 3 14 4 36 5 37 6 9 7 10 8 8 9 3 10 4 11 38 12REMARK SMILES IDX 5 13 6 14 39 15 2 16 1 17 7 18 15 20 17 21 16 22 18 24 19 25REMARK SMILES IDX 23 26 20 27 22 28 21 29 24 31 25 32 26 34 27 35 28 36 35 37REMARK SMILES IDX 29 38 34 39 30 40 33 41 31 42 32 43REMARK H PARENT 7 19 17 23 21 30 24 33USER                              x       y       z     vdW  Elec       q    TypeUSER                           _______ _______ _______ _____ _____    ______ ____ROOTATOM      1  C   UNL     1      15.432 -13.321 -10.298 -0.32 -0.01    +0.023 A  ATOM      2  C   UNL     1      15.716 -13.611 -11.640 -0.13 -0.00    +0.013 A  ATOM      3  C   UNL     1      14.784 -14.295 -12.429 -0.36 -0.01    +0.014 A  ATOM      4  C   UNL     1      13.558 -14.689 -11.879 -0.25 -0.01    +0.039 A  ATOM      5  C   UNL     1      13.262 -14.363 -10.548 -0.33 -0.01    +0.014 A  ATOM      6  C   UNL     1      14.192 -13.679  -9.760 -0.35 -0.01    +0.013 A  ENDROOTBRANCH   1   7ATOM      7  C   UNL     1      16.438 -12.565  -9.513 -0.31 -0.05    +0.199 C  ATOM      8  O   UNL     1      17.630 -12.676  -9.806 -0.17 +0.05    -0.288 OA BRANCH   7   9ATOM      9  C   UNL     1      16.080 -11.632  -8.423 -0.37 -0.03    +0.104 A  ATOM     10  C   UNL     1      15.383 -11.187  -6.131 -0.42 -0.06    +0.155 A  ATOM     11  C   UNL     1      15.383  -9.817  -6.399 -0.57 -0.02    +0.053 A  ATOM     12  C   UNL     1      15.741 -12.083  -7.148 -0.30 -0.07    +0.179 A  ATOM     13  C   UNL     1      15.756  -9.351  -7.664 -0.65 -0.01    +0.051 A  ATOM     14  C   UNL     1      16.116 -10.252  -8.661 -0.49 -0.03    +0.130 A  ATOM     15  F   UNL     1      15.777 -13.396  -6.868 +0.04 +0.09    -0.202 F  BRANCH  10  16ATOM     16  O   UNL     1      15.058 -11.760  -4.930 -0.49 +0.18    -0.494 OA ATOM     17  C   UNL     1      13.710 -11.637  -4.492 -0.38 -0.17    +0.278 C  ENDBRANCH  10  16BRANCH  14  18ATOM     18  O   UNL     1      16.501  -9.713  -9.859 -0.20 +0.11    -0.507 OA ATOM     19  H   UNL     1      17.043 -10.384 -10.333 +0.23 -0.06    +0.293 HD ENDBRANCH  14  18ENDBRANCH   7   9ENDBRANCH   1   7BRANCH   4  20ATOM     20  C   UNL     1      12.520 -15.410 -12.669 -0.14 -0.06    +0.251 C  ATOM     21  N   UNL     1      12.961 -16.219 -13.698 -0.03 +0.07    -0.347 N  ATOM     22  O   UNL     1      11.334 -15.291 -12.385 -0.36 +0.01    -0.269 OA ATOM     23  H   UNL     1      13.950 -16.315 -13.880 +0.12 -0.04    +0.164 HD BRANCH  21  24ATOM     24  C   UNL     1      12.011 -16.902 -14.575 -0.21 -0.01    +0.107 C  ATOM     25  C   UNL     1      12.461 -18.340 -14.871 -0.29 -0.00    +0.042 C  ATOM     26  C   UNL     1      11.750 -16.112 -15.889 -0.23 -0.01    +0.118 C  ATOM     27  C   UNL     1      13.599 -18.402 -15.887 -0.38 +0.00    +0.083 C  ATOM     28  C   UNL     1      12.971 -16.267 -16.828 -0.36 +0.01    +0.108 C  ATOM     29  N   UNL     1      13.287 -17.676 -17.115 -0.24 -0.09    -0.315 NA ATOM     30  H   UNL     1      12.472 -18.092 -17.568 +0.06 +0.04    +0.122 HD BRANCH  26  31ATOM     31  N   UNL     1      10.502 -16.564 -16.530 -0.07 -0.01    -0.346 N  ATOM     32  C   UNL     1       9.966 -15.871 -17.593 -0.19 +0.02    +0.251 C  ATOM     33  H   UNL     1       9.854 -17.084 -15.957 +0.09 +0.00    +0.164 HD ATOM     34  O   UNL     1      10.526 -14.942 -18.161 -0.29 -0.00    -0.269 OA BRANCH  32  35ATOM     35  C   UNL     1       8.588 -16.310 -17.976 -0.27 +0.00    +0.045 A  ATOM     36  C   UNL     1       8.350 -17.485 -18.816 -0.33 +0.00    +0.034 A  ATOM     37  C   UNL     1       7.563 -15.541 -17.546 -0.25 +0.00    +0.065 A  ATOM     38  C   UNL     1       7.085 -17.817 -19.131 -0.28 +0.02    +0.118 A  ATOM     39  C   UNL     1       6.228 -15.900 -17.877 -0.24 +0.04    +0.179 A  ATOM     40  N   UNL     1       6.030 -17.035 -18.663 -0.26 -0.07    -0.201 N  ATOM     41  N   UNL     1       5.058 -15.375 -17.589 -0.73 -0.05    -0.109 NA ATOM     42  N   UNL     1       4.700 -17.182 -18.845 -0.57 -0.02    -0.040 NA ATOM     43  N   UNL     1       4.125 -16.178 -18.196 -0.85 -0.02    -0.023 NA ENDBRANCH  32  35ENDBRANCH  26  31ENDBRANCH  21  24ENDBRANCH   4  20TORSDOF 8TERENDMDL