MODEL        7USER    Run = 7USERUSER    Estimated Free Energy of Binding    =  -8.62 kcal/mol  [=(1)+(2)+(3)-(4)]USERUSER    (1) Final Intermolecular Energy     = -11.90 kcal/molUSER        vdW + Hbond + desolv Energy     = -11.76 kcal/molUSER        Electrostatic Energy            =  -0.14 kcal/molUSER        Moving Ligand-Fixed Receptor    = -11.90 kcal/molUSER        Moving Ligand-Moving Receptor   =  +0.00 kcal/molUSER    (2) Final Total Internal Energy     =  -0.81 kcal/molUSER    (3) Torsional Free Energy           =  +3.28 kcal/molUSER    (4) Unbound System's Energy         =  -0.81 kcal/molUSERUSERREMARK SMILES COCCNCc1ccccc1C=Cc1cncc(-c2cccc(O)c2C#N)n1REMARK SMILES IDX 7 1 8 2 9 3 10 4 11 5 12 6 6 7 5 8 4 10 3 11 2 12 1 13 13 14REMARK SMILES IDX 14 15 15 16 16 17 29 18 17 19 19 20 18 21 20 22 21 23 26 24REMARK SMILES IDX 22 25 24 26 23 27 27 28 28 29 25 30REMARK H PARENT 5 9 25 31USER                              x       y       z     vdW  Elec       q    TypeUSER                           _______ _______ _______ _____ _____    ______ ____ROOTATOM      1  C   UNL     1      15.375 -11.012  -7.120 -0.50 +0.01    -0.027 A  ATOM      2  C   UNL     1      15.884  -9.788  -6.643 -0.57 -0.00    +0.005 A  ATOM      3  C   UNL     1      16.119  -8.718  -7.506 -0.15 -0.00    +0.000 A  ATOM      4  C   UNL     1      15.847  -8.851  -8.863 -0.45 -0.00    +0.001 A  ATOM      5  C   UNL     1      15.344 -10.054  -9.356 -0.44 -0.00    +0.008 A  ATOM      6  C   UNL     1      15.112 -11.143  -8.498 -0.44 +0.01    -0.021 A  ENDROOTBRANCH   1   7ATOM      7  C   UNL     1      15.161 -12.138  -6.129 -0.32 -0.06    +0.117 C  BRANCH   7   8ATOM      8  N   UNL     1      14.766 -11.675  -4.792 -0.67 +0.14    -0.310 NA ATOM      9  H   UNL     1      14.582 -10.674  -4.846 -0.46 -0.10    +0.123 HD BRANCH   8  10ATOM     10  C   UNL     1      15.828 -11.902  -3.803 -0.40 -0.00    +0.109 C  BRANCH  10  11ATOM     11  C   UNL     1      17.215 -11.900  -4.465 -0.43 +0.02    +0.175 C  BRANCH  11  12ATOM     12  O   UNL     1      18.226 -11.405  -3.582 -0.76 -0.11    -0.383 OA ATOM     13  C   UNL     1      17.903 -10.137  -3.026 -0.56 +0.03    +0.194 C  ENDBRANCH  11  12ENDBRANCH  10  11ENDBRANCH   8  10ENDBRANCH   7   8ENDBRANCH   1   7BRANCH   6  14ATOM     14  C   UNL     1      14.576 -12.382  -9.074 -0.38 -0.01    +0.011 C  BRANCH  14  15ATOM     15  C   UNL     1      15.242 -13.533  -9.269 -0.41 -0.01    +0.030 C  BRANCH  15  16ATOM     16  C   UNL     1      15.734 -14.120 -10.518 -0.29 -0.02    +0.082 A  ATOM     17  C   UNL     1      16.987 -13.867 -11.069 -0.36 -0.03    +0.139 A  ATOM     18  N   UNL     1      14.895 -15.025 -11.080 -0.13 +0.07    -0.245 NA ATOM     19  N   UNL     1      17.437 -14.477 -12.195 -0.35 +0.08    -0.260 NA ATOM     20  C   UNL     1      15.332 -15.656 -12.198 -0.29 -0.03    +0.091 A  ATOM     21  C   UNL     1      16.583 -15.373 -12.740 -0.06 -0.05    +0.140 A  BRANCH  20  22ATOM     22  C   UNL     1      14.405 -16.631 -12.787 -0.30 -0.01    +0.023 A  ATOM     23  C   UNL     1      14.600 -17.056 -14.118 -0.38 -0.00    +0.012 A  ATOM     24  C   UNL     1      13.305 -17.155 -12.070 -0.29 -0.02    +0.103 A  ATOM     25  C   UNL     1      13.735 -17.970 -14.722 -0.35 -0.00    +0.005 A  ATOM     26  C   UNL     1      12.446 -18.074 -12.692 -0.34 -0.02    +0.134 A  ATOM     27  C   UNL     1      12.655 -18.482 -14.009 -0.25 -0.01    +0.047 A  BRANCH  24  28ATOM     28  C   UNL     1      13.071 -16.787 -10.698 -0.37 -0.03    +0.104 C  ATOM     29  N   UNL     1      12.883 -16.460  -9.599 -0.51 +0.07    -0.192 NA ENDBRANCH  24  28BRANCH  26  30ATOM     30  O   UNL     1      11.386 -18.586 -11.993 -0.19 +0.04    -0.507 OA ATOM     31  H   UNL     1      11.630 -18.701 -11.059 -0.34 -0.10    +0.293 HD ENDBRANCH  26  30ENDBRANCH  20  22ENDBRANCH  15  16ENDBRANCH  14  15ENDBRANCH   6  14TORSDOF 11TERENDMDL