REMARK SMILES COc1ccc(O)c(C(=O)c2ccc(/C=C/[C@@H]3CCN[C@H]3NC(=O)c3ccncc3)cc2)c1F
REMARK SMILES IDX 11 1 12 2 13 3 14 4 31 5 32 6 9 7 10 8 8 9 3 10 4 11 33 12
REMARK SMILES IDX 5 13 6 14 34 15 2 16 1 17 7 18 15 20 16 21 17 22 18 23 21 24
REMARK SMILES IDX 19 25 20 26 22 28 23 29 24 31 25 32 26 33 30 34 27 35 29 36
REMARK SMILES IDX 28 37
REMARK H PARENT 7 19 20 27 22 30
ROOT
ATOM      1  C   UNL     1      -3.007   1.968  -0.272  1.00  0.00     0.023 A 
ATOM      2  C   UNL     1      -2.272   2.363  -1.394  1.00  0.00     0.013 A 
ATOM      3  C   UNL     1      -1.020   1.795  -1.647  1.00  0.00     0.009 A 
ATOM      4  C   UNL     1      -0.484   0.830  -0.785  1.00  0.00    -0.026 A 
ATOM      5  C   UNL     1      -1.211   0.471   0.359  1.00  0.00     0.009 A 
ATOM      6  C   UNL     1      -2.465   1.036   0.618  1.00  0.00     0.013 A 
ENDROOT
BRANCH   1   7
ATOM      7  C   UNL     1      -4.316   2.614  -0.021  1.00  0.00     0.199 C 
ATOM      8  O   UNL     1      -4.446   3.816  -0.266  1.00  0.00    -0.288 OA
BRANCH   7   9
ATOM      9  C   UNL     1      -5.471   1.901   0.566  1.00  0.00     0.104 A 
ATOM     10  C   UNL     1      -6.801  -0.116   0.894  1.00  0.00     0.155 A 
ATOM     11  C   UNL     1      -7.675   0.597   1.717  1.00  0.00     0.053 A 
ATOM     12  C   UNL     1      -5.707   0.547   0.320  1.00  0.00     0.179 A 
ATOM     13  C   UNL     1      -7.466   1.959   1.945  1.00  0.00     0.051 A 
ATOM     14  C   UNL     1      -6.381   2.606   1.361  1.00  0.00     0.130 A 
ATOM     15  F   UNL     1      -4.896  -0.141  -0.499  1.00  0.00    -0.202 F 
BRANCH  10  16
ATOM     16  O   UNL     1      -6.910  -1.447   0.588  1.00  0.00    -0.494 OA
ATOM     17  C   UNL     1      -8.068  -2.129   1.051  1.00  0.00     0.278 C 
ENDBRANCH  10  16
BRANCH  14  18
ATOM     18  O   UNL     1      -6.267   3.948   1.610  1.00  0.00    -0.507 OA
ATOM     19  H   UNL     1      -5.603   4.316   0.983  1.00  0.00     0.293 HD
ENDBRANCH  14  18
ENDBRANCH   7   9
ENDBRANCH   1   7
BRANCH   4  20
ATOM     20  C   UNL     1       0.846   0.279  -1.079  1.00  0.00     0.004 C 
BRANCH  20  21
ATOM     21  C   UNL     1       1.238  -0.970  -0.775  1.00  0.00    -0.019 C 
BRANCH  21  22
ATOM     22  C   UNL     1       2.612  -1.512  -1.093  1.00  0.00     0.050 C 
ATOM     23  C   UNL     1       2.516  -2.825  -1.882  1.00  0.00     0.026 C 
ATOM     24  C   UNL     1       3.432  -1.883   0.169  1.00  0.00     0.157 C 
ATOM     25  C   UNL     1       3.606  -3.696  -1.292  1.00  0.00     0.083 C 
ATOM     26  N   UNL     1       3.588  -3.327   0.117  1.00  0.00    -0.297 NA
ATOM     27  H   UNL     1       4.397  -3.655   0.627  1.00  0.00     0.124 HD
BRANCH  24  28
ATOM     28  N   UNL     1       4.769  -1.350   0.159  1.00  0.00    -0.336 N 
ATOM     29  C   UNL     1       4.980   0.001   0.335  1.00  0.00     0.252 C 
ATOM     30  H   UNL     1       5.522  -1.983   0.369  1.00  0.00     0.165 HD
ATOM     31  O   UNL     1       4.079   0.825   0.427  1.00  0.00    -0.269 OA
BRANCH  29  32
ATOM     32  C   UNL     1       6.395   0.439   0.446  1.00  0.00     0.042 A 
ATOM     33  C   UNL     1       7.437  -0.266  -0.157  1.00  0.00     0.034 A 
ATOM     34  C   UNL     1       6.672   1.611   1.149  1.00  0.00     0.034 A 
ATOM     35  C   UNL     1       8.721   0.226  -0.007  1.00  0.00     0.112 A 
ATOM     36  C   UNL     1       7.989   2.017   1.242  1.00  0.00     0.112 A 
ATOM     37  N   UNL     1       9.020   1.344   0.686  1.00  0.00    -0.265 NA
ENDBRANCH  29  32
ENDBRANCH  24  28
ENDBRANCH  21  22
ENDBRANCH  20  21
ENDBRANCH   4  20
TORSDOF 9
