MODEL        10USER    Run = 10USERUSER    Estimated Free Energy of Binding    =  -8.11 kcal/mol  [=(1)+(2)+(3)-(4)]USERUSER    (1) Final Intermolecular Energy     = -10.79 kcal/molUSER        vdW + Hbond + desolv Energy     = -10.71 kcal/molUSER        Electrostatic Energy            =  -0.08 kcal/molUSER        Moving Ligand-Fixed Receptor    = -10.79 kcal/molUSER        Moving Ligand-Moving Receptor   =  +0.00 kcal/molUSER    (2) Final Total Internal Energy     =  -3.06 kcal/molUSER    (3) Torsional Free Energy           =  +2.68 kcal/molUSER    (4) Unbound System's Energy         =  -3.06 kcal/molUSERUSERREMARK SMILES COc1ccc(O)c(C(=O)c2ccc(/C=C/[C@@H]3CCN[C@H]3NC(=O)c3ccncc3)cc2)c1FREMARK SMILES IDX 11 1 12 2 13 3 14 4 31 5 32 6 9 7 10 8 8 9 3 10 4 11 33 12REMARK SMILES IDX 5 13 6 14 34 15 2 16 1 17 7 18 15 20 16 21 17 22 18 23 21 24REMARK SMILES IDX 19 25 20 26 22 28 23 29 24 31 25 32 26 33 30 34 27 35 29 36REMARK SMILES IDX 28 37REMARK H PARENT 7 19 20 27 22 30USER                              x       y       z     vdW  Elec       q    TypeUSER                           _______ _______ _______ _____ _____    ______ ____ROOTATOM      1  C   UNL     1      13.553 -16.531 -11.321 -0.33 -0.01    +0.023 A  ATOM      2  C   UNL     1      14.667 -16.534 -12.166 -0.30 -0.00    +0.013 A  ATOM      3  C   UNL     1      14.555 -17.023 -13.471 -0.36 -0.00    +0.009 A  ATOM      4  C   UNL     1      13.335 -17.518 -13.948 -0.30 +0.00    -0.026 A  ATOM      5  C   UNL     1      12.235 -17.548 -13.079 -0.36 -0.00    +0.009 A  ATOM      6  C   UNL     1      12.340 -17.060 -11.772 -0.38 -0.00    +0.013 A  ENDROOTBRANCH   1   7ATOM      7  C   UNL     1      13.718 -16.032  -9.936 -0.29 -0.06    +0.199 C  ATOM      8  O   UNL     1      12.755 -16.079  -9.166 -0.88 +0.12    -0.288 OA BRANCH   7   9ATOM      9  C   UNL     1      14.971 -15.424  -9.439 -0.22 -0.03    +0.104 A  ATOM     10  C   UNL     1      17.325 -15.572  -8.823 -0.28 -0.01    +0.155 A  ATOM     11  C   UNL     1      17.323 -14.213  -8.500 -0.33 -0.01    +0.053 A  ATOM     12  C   UNL     1      16.143 -16.167  -9.285 -0.16 -0.02    +0.179 A  ATOM     13  C   UNL     1      16.148 -13.468  -8.620 -0.34 -0.02    +0.051 A  ATOM     14  C   UNL     1      14.980 -14.074  -9.072 -0.26 -0.06    +0.130 A  ATOM     15  F   UNL     1      16.149 -17.482  -9.556 -0.09 -0.00    -0.202 F  BRANCH  10  16ATOM     16  O   UNL     1      18.409 -16.405  -8.734 -0.10 -0.02    -0.494 OA ATOM     17  C   UNL     1      18.668 -17.004  -7.471 -0.29 +0.04    +0.278 C  ENDBRANCH  10  16BRANCH  14  18ATOM     18  O   UNL     1      13.866 -13.280  -9.130 +0.02 +0.52    -0.507 OA ATOM     19  H   UNL     1      13.077 -13.856  -9.004 +0.07 -0.51    +0.293 HD ENDBRANCH  14  18ENDBRANCH   7   9ENDBRANCH   1   7BRANCH   4  20ATOM     20  C   UNL     1      13.272 -18.044 -15.319 -0.39 -0.00    +0.004 C  BRANCH  20  21ATOM     21  C   UNL     1      12.589 -17.471 -16.325 -0.36 -0.00    -0.019 C  BRANCH  21  22ATOM     22  C   UNL     1      11.781 -16.204 -16.167 -0.29 -0.00    +0.050 C  ATOM     23  C   UNL     1      11.421 -15.608 -17.535 -0.31 +0.01    +0.026 C  ATOM     24  C   UNL     1      12.553 -15.070 -15.446 -0.25 -0.05    +0.157 C  ATOM     25  C   UNL     1      11.594 -14.114 -17.348 -0.45 -0.04    +0.083 C  ATOM     26  N   UNL     1      12.734 -14.030 -16.445 -0.20 +0.16    -0.297 NA ATOM     27  H   UNL     1      12.858 -13.112 -16.041 -0.41 -0.11    +0.124 HD BRANCH  24  28ATOM     28  N   UNL     1      11.805 -14.456 -14.381 -0.06 +0.12    -0.336 N  ATOM     29  C   UNL     1      12.328 -13.381 -13.694 -0.23 -0.12    +0.252 C  ATOM     30  H   UNL     1      10.807 -14.582 -14.383 +0.11 -0.05    +0.165 HD ATOM     31  O   UNL     1      13.455 -12.939 -13.876 -0.23 +0.17    -0.269 OA BRANCH  29  32ATOM     32  C   UNL     1      11.430 -12.728 -12.707 -0.33 -0.02    +0.042 A  ATOM     33  C   UNL     1      10.590 -13.465 -11.871 -0.32 -0.01    +0.034 A  ATOM     34  C   UNL     1      11.462 -11.338 -12.601 -0.43 -0.02    +0.034 A  ATOM     35  C   UNL     1       9.798 -12.769 -10.976 -0.29 -0.00    +0.112 A  ATOM     36  C   UNL     1      10.630 -10.738 -11.676 -0.48 -0.04    +0.112 A  ATOM     37  N   UNL     1       9.792 -11.424 -10.867 -0.58 -0.03    -0.265 NA ENDBRANCH  29  32ENDBRANCH  24  28ENDBRANCH  21  22ENDBRANCH  20  21ENDBRANCH   4  20TORSDOF 9TERENDMDL