MODEL        3USER    Run = 3USERUSER    Estimated Free Energy of Binding    =  -7.15 kcal/mol  [=(1)+(2)+(3)-(4)]USERUSER    (1) Final Intermolecular Energy     = -11.33 kcal/molUSER        vdW + Hbond + desolv Energy     = -11.64 kcal/molUSER        Electrostatic Energy            =  -0.12 kcal/molUSER        Moving Ligand-Fixed Receptor    = -11.76 kcal/molUSER        Moving Ligand-Moving Receptor   =  +0.43 kcal/molUSER    (2) Final Total Internal Energy     =  -2.50 kcal/molUSER    (3) Torsional Free Energy           =  +4.18 kcal/molUSER    (4) Unbound System's Energy         =  -2.50 kcal/molUSERUSERREMARK SMILES N#Cc1ccc(C(=O)c2ccc(C(=O)N[C@@H]3CCCNC[C@@H]3NC(=O)c3cncc(F)c3)cc2)c(O)c1REMARK SMILES IDX 13 1 14 2 15 3 12 5 9 6 10 7 34 8 11 9 33 10 7 11 8 12 6 13REMARK SMILES IDX 3 14 4 15 37 16 5 17 35 18 2 19 1 20 36 21 16 23 17 24 18 25REMARK SMILES IDX 22 27 21 28 20 29 19 31 23 33 24 34 25 36 26 37 27 38 32 39REMARK SMILES IDX 28 40 30 41 29 42 31 43REMARK H PARENT 15 4 36 22 20 30 23 35REMARK Flexibility Score:   88.900USER                              x       y       z     vdW  Elec       q    TypeUSER                           _______ _______ _______ _____ _____    ______ ____ROOTATOM      1  C   UNL     1      38.942  45.014  18.924 -0.29 -0.02    +0.251 C  ATOM      2  O   UNL     1      39.164  43.947  18.361 -0.21 +0.02    -0.269 OA ATOM      3  N   UNL     1      38.992  46.232  18.282 -0.19 +0.06    -0.347 N  ATOM      4  H   UNL     1      39.011  47.068  18.851 +0.11 -0.03    +0.164 HD ENDROOTBRANCH   1   5ATOM      5  C   UNL     1      38.615  45.034  20.377 -0.32 -0.00    +0.039 A  ATOM      6  C   UNL     1      38.099  45.102  23.132 -0.30 +0.00    +0.023 A  ATOM      7  C   UNL     1      37.283  44.340  22.286 -0.35 +0.00    +0.013 A  ATOM      8  C   UNL     1      39.193  45.798  22.608 -0.31 +0.00    +0.013 A  ATOM      9  C   UNL     1      37.540  44.308  20.910 -0.37 +0.00    +0.014 A  ATOM     10  C   UNL     1      39.447  45.767  21.235 -0.25 +0.00    +0.014 A  BRANCH   6  11ATOM     11  C   UNL     1      37.880  45.130  24.596 -0.24 +0.02    +0.196 C  ATOM     12  O   UNL     1      37.298  46.091  25.094 -0.82 -0.05    -0.288 OA BRANCH  11  13ATOM     13  C   UNL     1      38.359  44.047  25.494 -0.18 -0.00    +0.064 A  ATOM     14  C   UNL     1      39.209  42.005  27.228 -0.29 -0.00    +0.056 A  ATOM     15  C   UNL     1      39.962  42.325  26.090 -0.17 -0.00    +0.020 A  ATOM     16  C   UNL     1      38.023  42.693  27.489 -0.31 -0.01    +0.066 A  ATOM     17  C   UNL     1      39.538  43.338  25.223 -0.18 +0.00    +0.017 A  ATOM     18  C   UNL     1      37.598  43.697  26.618 -0.22 -0.01    +0.128 A  BRANCH  14  19ATOM     19  C   UNL     1      39.652  40.969  28.114 -0.31 +0.00    +0.099 C  ATOM     20  N   UNL     1      40.015  40.142  28.843 -0.64 -0.04    -0.192 NA ENDBRANCH  14  19BRANCH  18  21ATOM     21  O   UNL     1      36.410  44.303  26.929 -0.10 +0.09    -0.507 OA ATOM     22  H   UNL     1      36.269  45.041  26.291 -0.10 -0.06    +0.293 HD ENDBRANCH  18  21ENDBRANCH  11  13ENDBRANCH   6  11ENDBRANCH   1   5BRANCH   3  23ATOM     23  C   UNL     1      39.374  46.383  16.867 -0.43 -0.02    +0.106 C  BRANCH  23  24ATOM     24  C   UNL     1      40.453  47.460  16.706 -0.57 -0.00    +0.028 C  BRANCH  24  25ATOM     25  C   UNL     1      40.873  47.900  15.301 -0.54 -0.00    +0.017 CG0ATOM     26  G   UNL     1      40.043  48.964  14.594 +0.00 +0.00    +0.000 G0 ENDBRANCH  24  25ENDBRANCH  23  24BRANCH  23  27ATOM     27  C   UNL     1      38.184  46.559  15.879 -0.38 -0.05    +0.118 C  BRANCH  27  28ATOM     28  C   UNL     1      37.942  48.022  15.445 -0.47 -0.07    +0.108 C  BRANCH  28  29ATOM     29  N   UNL     1      38.700  48.497  14.286 -0.29 +0.14    -0.315 NA ATOM     30  H   UNL     1      38.169  49.255  13.855 -0.42 -0.07    +0.122 HD BRANCH  29  31ATOM     31  C   UNL     1      40.042  48.965  14.594 -0.44 -0.03    +0.081 CG0ATOM     32  G   UNL     1      40.867  47.900  15.307 +0.00 +0.00    +0.000 G0 ENDBRANCH  29  31ENDBRANCH  28  29ENDBRANCH  27  28BRANCH  27  33ATOM     33  N   UNL     1      36.956  45.995  16.464 -0.13 +0.18    -0.346 N  ATOM     34  C   UNL     1      36.594  44.679  16.309 -0.23 -0.10    +0.253 C  ATOM     35  H   UNL     1      36.365  46.655  16.971 +0.10 -0.12    +0.164 HD ATOM     36  O   UNL     1      37.289  43.862  15.713 -0.24 +0.08    -0.269 OA BRANCH  34  37ATOM     37  C   UNL     1      35.312  44.237  16.913 -0.27 -0.03    +0.061 A  ATOM     38  C   UNL     1      34.349  43.502  16.224 -0.27 -0.06    +0.125 A  ATOM     39  C   UNL     1      35.060  44.544  18.254 -0.30 -0.02    +0.056 A  ATOM     40  N   UNL     1      33.175  43.086  16.770 -0.17 +0.11    -0.261 NA ATOM     41  C   UNL     1      33.869  44.128  18.830 -0.28 -0.03    +0.142 A  ATOM     42  C   UNL     1      32.964  43.414  18.067 -0.22 -0.04    +0.150 A  ATOM     43  F   UNL     1      33.603  44.416  20.110 -0.08 +0.04    -0.205 F  ENDBRANCH  34  37ENDBRANCH  27  33ENDBRANCH  23  27ENDBRANCH   3  23TORSDOF 8TERENDMDL