REMARK SMILES CN1CCN(c2ccc3c(c2)ON(/C=C2\C(=O)N(C)c4ccc(Cl)cc42)[CH][C@@H]3O)CC1
REMARK SMILES IDX 6 1 7 2 8 3 9 4 10 5 11 6 12 7 13 8 27 9 28 10 5 11 2 12
REMARK SMILES IDX 3 13 31 14 4 15 30 16 1 17 29 18 14 20 15 21 16 22 26 23
REMARK SMILES IDX 18 24 25 25 20 26 23 27 21 28 22 29 17 30 19 31 24 32
REMARK H PARENT 29 19
ROOT
ATOM      1  C   UNL     1      -2.581  -1.276  -0.190  1.00  0.00     0.041 A 
ATOM      2  C   UNL     1      -2.784  -2.665  -0.124  1.00  0.00     0.026 A 
ATOM      3  C   UNL     1      -1.735  -3.583  -0.281  1.00  0.00     0.012 A 
ATOM      4  C   UNL     1      -0.435  -3.130  -0.501  1.00  0.00     0.028 A 
ATOM      5  C   UNL     1      -0.211  -1.757  -0.573  1.00  0.00     0.163 A 
ATOM      6  C   UNL     1      -1.265  -0.850  -0.429  1.00  0.00     0.076 A 
ATOM      7  O   UNL     1       1.030  -1.240  -0.874  1.00  0.00    -0.379 OA
ATOM      8  N   UNL     1       2.094  -2.011  -0.371  1.00  0.00    -0.208 N 
ATOM      9  C   UNL     1       2.019  -3.386  -0.480  1.00  0.00     0.185 C 
ATOM     10  C   UNL     1       0.716  -4.069  -0.696  1.00  0.00     0.177 C 
ENDROOT
BRANCH   1  11
ATOM     11  N   UNL     1      -3.621  -0.374  -0.036  1.00  0.00    -0.369 N 
ATOM     12  N   UNL     1      -5.876   1.559   0.396  1.00  0.00    -0.303 NA
ATOM     13  C   UNL     1      -5.903   0.438  -0.569  1.00  0.00     0.105 C 
ATOM     14  C   UNL     1      -4.575   1.633   1.096  1.00  0.00     0.105 C 
ATOM     15  C   UNL     1      -5.032  -0.773  -0.161  1.00  0.00     0.132 C 
ATOM     16  C   UNL     1      -3.367   1.028   0.343  1.00  0.00     0.132 C 
ATOM     17  C   UNL     1      -6.203   2.816  -0.271  1.00  0.00     0.105 C 
ENDBRANCH   1  11
BRANCH  10  18
ATOM     18  O   UNL     1       0.715  -4.603  -2.014  1.00  0.00    -0.386 OA
ATOM     19  H   UNL     1       0.313  -3.925  -2.584  1.00  0.00     0.211 HD
ENDBRANCH  10  18
BRANCH   8  20
ATOM     20  C   UNL     1       3.271  -1.340  -0.066  1.00  0.00     0.139 C 
BRANCH  20  21
ATOM     21  C   UNL     1       3.589  -0.048   0.112  1.00  0.00     0.069 C 
ATOM     22  C   UNL     1       2.700   1.174   0.076  1.00  0.00     0.260 C 
ATOM     23  C   UNL     1       4.953   0.424   0.409  1.00  0.00     0.014 A 
ATOM     24  N   UNL     1       3.560   2.248   0.320  1.00  0.00    -0.311 N 
ATOM     25  C   UNL     1       6.163  -0.233   0.571  1.00  0.00     0.031 A 
ATOM     26  C   UNL     1       4.878   1.817   0.522  1.00  0.00     0.052 A 
ATOM     27  C   UNL     1       7.296   0.537   0.850  1.00  0.00     0.041 A 
ATOM     28  C   UNL     1       5.994   2.590   0.798  1.00  0.00     0.028 A 
ATOM     29  C   UNL     1       7.217   1.934   0.964  1.00  0.00     0.023 A 
ATOM     30  O   UNL     1       1.499   1.237  -0.104  1.00  0.00    -0.269 OA
ATOM     31  C   UNL     1       3.138   3.621   0.388  1.00  0.00     0.153 C 
ATOM     32  Cl  UNL     1       8.817  -0.242   1.059  1.00  0.00    -0.084 Cl
ENDBRANCH  20  21
ENDBRANCH   8  20
TORSDOF 4
