MODEL        9USER    Run = 9USERUSER    Estimated Free Energy of Binding    = -11.17 kcal/mol  [=(1)+(2)+(3)-(4)]USERUSER    (1) Final Intermolecular Energy     = -12.36 kcal/molUSER        vdW + Hbond + desolv Energy     = -12.31 kcal/molUSER        Electrostatic Energy            =  -0.05 kcal/molUSER        Moving Ligand-Fixed Receptor    = -12.36 kcal/molUSER        Moving Ligand-Moving Receptor   =  +0.00 kcal/molUSER    (2) Final Total Internal Energy     =  -1.26 kcal/molUSER    (3) Torsional Free Energy           =  +1.19 kcal/molUSER    (4) Unbound System's Energy         =  -1.26 kcal/molUSERUSERREMARK SMILES Cc1cc(-c2nn(F)c3cnc(-c4cccnc4)cc23)ccc1-c1cnnn1C1CC1REMARK SMILES IDX 1 1 2 2 3 3 4 4 21 5 22 6 23 7 24 8 25 9 28 10 26 11 27 12REMARK SMILES IDX 29 13 30 14 31 15 5 16 6 17 20 18 7 19 19 20 9 21 12 22REMARK SMILES IDX 10 23 11 24 8 25 13 26 14 27 18 28 15 29 17 30 16 31REMARK H PARENTUSER                              x       y       z     vdW  Elec       q    TypeUSER                           _______ _______ _______ _____ _____    ______ ____ROOTATOM      1  C   UNL     1      35.871  44.073  19.731 -0.43 -0.01    +0.045 C  ATOM      2  C   UNL     1      37.313  44.298  20.098 -0.35 +0.00    -0.041 A  ATOM      3  C   UNL     1      38.080  45.191  19.326 -0.27 -0.00    +0.014 A  ATOM      4  C   UNL     1      39.431  45.432  19.615 -0.40 -0.00    +0.003 A  ATOM      5  C   UNL     1      40.019  44.777  20.700 -0.34 +0.00    +0.011 A  ATOM      6  C   UNL     1      39.271  43.882  21.470 -0.23 +0.00    +0.011 A  ATOM      7  C   UNL     1      37.922  43.633  21.179 -0.34 +0.00    +0.004 A  ENDROOTBRANCH   7   8ATOM      8  C   UNL     1      37.190  42.689  22.010 -0.38 +0.01    +0.089 A  ATOM      9  C   UNL     1      36.433  41.580  21.685 -0.44 +0.00    +0.166 A  ATOM     10  N   UNL     1      37.095  42.723  23.379 -0.26 -0.02    -0.242 N  ATOM     11  N   UNL     1      35.943  40.995  22.818 -0.32 +0.00    -0.138 NA ATOM     12  N   UNL     1      36.366  41.702  23.857 -0.44 +0.00    -0.067 NA BRANCH  10  13ATOM     13  C   UNL     1      37.736  43.719  24.265 -0.30 +0.01    +0.110 C  ATOM     14  C   UNL     1      36.940  44.670  25.129 -0.36 +0.00    +0.029 C  ATOM     15  C   UNL     1      37.736  43.573  25.770 -0.30 -0.00    +0.029 C  ENDBRANCH  10  13ENDBRANCH   7   8BRANCH   4  16ATOM     16  C   UNL     1      40.199  46.369  18.793 -0.33 -0.01    +0.103 A  ATOM     17  N   UNL     1      41.311  46.951  19.275 -0.32 -0.00    -0.141 NA ATOM     18  C   UNL     1      39.927  46.809  17.456 -0.45 -0.01    +0.035 A  ATOM     19  N   UNL     1      41.742  47.704  18.260 -0.52 +0.00    -0.093 N  ATOM     20  C   UNL     1      38.930  46.594  16.488 -0.40 -0.01    +0.041 A  ATOM     21  C   UNL     1      40.965  47.674  17.147 -0.42 -0.02    +0.123 A  ATOM     22  C   UNL     1      39.062  47.253  15.262 -0.42 -0.02    +0.073 A  ATOM     23  C   UNL     1      41.064  48.317  15.930 -0.40 -0.02    +0.143 A  ATOM     24  N   UNL     1      40.104  48.092  15.002 -0.32 +0.06    -0.254 NA ATOM     25  F   UNL     1      42.882  48.468  18.352 -0.19 -0.00    -0.075 F  BRANCH  22  26ATOM     26  C   UNL     1      38.086  47.105  14.166 -0.46 -0.01    +0.018 A  ATOM     27  C   UNL     1      37.626  45.845  13.754 -0.43 -0.00    +0.013 A  ATOM     28  C   UNL     1      37.548  48.194  13.476 -0.39 -0.04    +0.121 A  ATOM     29  C   UNL     1      36.707  45.723  12.713 -0.55 -0.01    +0.021 A  ATOM     30  N   UNL     1      36.657  48.113  12.456 -0.94 +0.09    -0.264 NA ATOM     31  C   UNL     1      36.257  46.876  12.099 -0.59 -0.05    +0.111 A  ENDBRANCH  22  26ENDBRANCH   4  16TORSDOF 4TERENDMDL