REMARK SMILES Cc1cc(-c2nn(F)c3cnc(-c4cccnc4)cc23)ccc1-c1cnnn1C1CC1
REMARK SMILES IDX 1 1 2 2 3 3 4 4 21 5 22 6 23 7 24 8 25 9 28 10 26 11 27 12
REMARK SMILES IDX 29 13 30 14 31 15 5 16 6 17 20 18 7 19 19 20 9 21 12 22
REMARK SMILES IDX 10 23 11 24 8 25 13 26 14 27 18 28 15 29 17 30 16 31
REMARK H PARENT
ROOT
ATOM      1  C   UNL     1       3.461   2.603   0.541  1.00  0.00     0.045 C 
ATOM      2  C   UNL     1       2.448   1.506   0.351  1.00  0.00    -0.041 A 
ATOM      3  C   UNL     1       1.423   1.683  -0.597  1.00  0.00     0.014 A 
ATOM      4  C   UNL     1       0.446   0.700  -0.810  1.00  0.00     0.003 A 
ATOM      5  C   UNL     1       0.504  -0.483  -0.069  1.00  0.00     0.011 A 
ATOM      6  C   UNL     1       1.512  -0.670   0.881  1.00  0.00     0.011 A 
ATOM      7  C   UNL     1       2.486   0.315   1.101  1.00  0.00     0.004 A 
ENDROOT
BRANCH   7   8
ATOM      8  C   UNL     1       3.511   0.073   2.105  1.00  0.00     0.089 A 
ATOM      9  C   UNL     1       3.711   0.618   3.358  1.00  0.00     0.166 A 
ATOM     10  N   UNL     1       4.562  -0.803   1.990  1.00  0.00    -0.242 N 
ATOM     11  N   UNL     1       4.815   0.065   3.942  1.00  0.00    -0.138 NA
ATOM     12  N   UNL     1       5.326  -0.817   3.094  1.00  0.00    -0.067 NA
BRANCH  10  13
ATOM     13  C   UNL     1       4.836  -1.677   0.829  1.00  0.00     0.110 C 
ATOM     14  C   UNL     1       5.193  -1.130  -0.534  1.00  0.00     0.029 C 
ATOM     15  C   UNL     1       6.229  -1.857   0.270  1.00  0.00     0.029 C 
ENDBRANCH  10  13
ENDBRANCH   7   8
BRANCH   4  16
ATOM     16  C   UNL     1      -0.605   0.916  -1.805  1.00  0.00     0.103 A 
ATOM     17  N   UNL     1      -0.319   1.477  -2.993  1.00  0.00    -0.141 NA
ATOM     18  C   UNL     1      -2.003   0.613  -1.703  1.00  0.00     0.035 A 
ATOM     19  N   UNL     1      -1.493   1.492  -3.629  1.00  0.00    -0.093 N 
ATOM     20  C   UNL     1      -2.869   0.080  -0.732  1.00  0.00     0.041 A 
ATOM     21  C   UNL     1      -2.541   1.000  -2.921  1.00  0.00     0.123 A 
ATOM     22  C   UNL     1      -4.220  -0.047  -1.067  1.00  0.00     0.073 A 
ATOM     23  C   UNL     1      -3.882   0.869  -3.219  1.00  0.00     0.143 A 
ATOM     24  N   UNL     1      -4.703   0.343  -2.279  1.00  0.00    -0.254 NA
ATOM     25  F   UNL     1      -1.626   1.992  -4.904  1.00  0.00    -0.075 F 
BRANCH  22  26
ATOM     26  C   UNL     1      -5.225  -0.596  -0.137  1.00  0.00     0.018 A 
ATOM     27  C   UNL     1      -6.574  -0.212  -0.199  1.00  0.00     0.013 A 
ATOM     28  C   UNL     1      -4.914  -1.532   0.852  1.00  0.00     0.121 A 
ATOM     29  C   UNL     1      -7.510  -0.737   0.691  1.00  0.00     0.021 A 
ATOM     30  N   UNL     1      -5.796  -2.060   1.738  1.00  0.00    -0.264 NA
ATOM     31  C   UNL     1      -7.076  -1.648   1.635  1.00  0.00     0.111 A 
ENDBRANCH  22  26
ENDBRANCH   4  16
TORSDOF 4
